include EquilCoex.lmp
echo both

include		../in.partitions
variable        pid world 0
include		../in.temp
variable	temperature equal 260
variable        tempDamp equal 0.100 # this is 0.1 ps
include		../in.pressure
variable        pressure equal 3039.75
variable        pressureDamp equal 1.0 #this is 1ps

variable	barostat string	   tri
variable	direction string   z
variable	direction_x_bool equal 0
variable	direction_y_bool equal 0
variable	direction_z_bool equal 1

include		../in.seed
variable        seed world 745823

units           metal
atom_style	full

# Setup connection of ice and liquid
shell  python3  CombineFiles.py liquid_final.data  ice_final_scaled.data

box tilt large
read_data        mobile.data  group mobile
Reading data file ...
  triclinic box = (0 0 0) to (31.164278 21.491243 37.685345) with tilt (-9.197045 -21.19022 -32.124252)
  reading atoms ...
  324 atoms
Finding 1-2 1-3 1-4 neighbors ...
     0 = max # of 1-2 neighbors
     0 = max # of 1-3 neighbors
     0 = max # of 1-4 neighbors
     1 = max # of special neighbors
read_data        rigid1.data add merge group rigid1
Reading data file ...
  triclinic box = (0 0 0) to (31.164278 21.491243 37.685345) with tilt (-9.197045 -21.19022 -32.124252)
  reading atoms ...
  972 atoms
Finding 1-2 1-3 1-4 neighbors ...
     0 = max # of 1-2 neighbors
     0 = max # of 1-3 neighbors
     0 = max # of 1-4 neighbors
     1 = max # of special neighbors
read_data        rigid2.data add merge group rigid2
Reading data file ...
  triclinic box = (0 0 0) to (31.164278 21.491243 37.685345) with tilt (-9.197045 -21.19022 -32.124252)
  reading atoms ...
  1296 atoms
Finding 1-2 1-3 1-4 neighbors ...
     0 = max # of 1-2 neighbors
     0 = max # of 1-3 neighbors
     0 = max # of 1-4 neighbors
     1 = max # of special neighbors
reset_timestep   5800000

include	         in.setup
variable	out_freq equal 500
variable	out_freq2 equal 2000

timestep        0.0005

neigh_modify    delay 7 every 1

include         in.deepmd
# This is deepMD model

# create groups ###
#group ox type 2
#group hy type 1

mass 2 15.999
mass 1 1.008

pair_style      deepmd ../../graph.pb
Summary of lammps deepmd module ...
  >>> Info of deepmd-kit:
  installed to:       /u/sigbjobo/software/DEEPMD_FROM_SOURCE/deepmd-kit/install
  source:             v2.1.3
  source branch:       master
  source commit:      5a32c49
  source commit at:   2022-07-01 09:52:58 +0800
  surpport model ver.:1.1
  build float prec:   double
  build with tf inc:  /u/sigbjobo/software/DEEPMD_FROM_SOURCE/tensorflow/install/include;/u/sigbjobo/software/DEEPMD_FROM_SOURCE/tensorflow/install/include
  build with tf lib:  /u/sigbjobo/software/DEEPMD_FROM_SOURCE/tensorflow/install/lib/libtensorflow_cc.so;/u/sigbjobo/software/DEEPMD_FROM_SOURCE/tensorflow/install/lib/libtensorflow_framework.so
  set tf intra_op_parallelism_threads: 0
  set tf inter_op_parallelism_threads: 0
  >>> Info of lammps module:
  use deepmd-kit at:  /u/sigbjobo/software/DEEPMD_FROM_SOURCE/deepmd-kit/install
  source:             v2.1.3
  source branch:      master
  source commit:      5a32c49
  source commit at:   2022-07-01 09:52:58 +0800
  build float prec:   double
  build with tf inc:  /u/sigbjobo/software/DEEPMD_FROM_SOURCE/tensorflow/install/include;/u/sigbjobo/software/DEEPMD_FROM_SOURCE/tensorflow/install/include
  build with tf lib:  /u/sigbjobo/software/DEEPMD_FROM_SOURCE/tensorflow/install/lib/libtensorflow_cc.so;/u/sigbjobo/software/DEEPMD_FROM_SOURCE/tensorflow/install/lib/libtensorflow_framework.so
pair_coeff      * *

bond_style      none
angle_style     none
dihedral_style  none
improper_style  none
neigh_modify exclude none

neighbor        2.0 bin
neigh_modify    every 10 delay 0 check no

thermo          500
thermo_style 	custom step temp pe etotal epair emol press lx ly lz xy xz yz vol pxx pyy pzz pxy pxz pyz cella cellb cellc cellalpha cellbeta cellgamma

restart 	500 restart.lmp.0 restart2.lmp.0

# 50 ps to join two simulation boxes
variable 	 steps equal 100000
include         ../in.dump
dump            myDump all atom 2000 dump.water.0
dump            myDump2 all dcd 2000 dump.0.dcd
dump_modify     myDump append yes
dump_modify     myDump2 append yes

variable speed  equal -3/(100000*$(dt))
variable speed  equal -3/(100000*0.00050000000000000001041)
variable speedx  equal -0.06*0
variable speedy  equal -0.06*0
variable speedz  equal -0.06*1

fix   1          mobile nve
fix   2		 mobile temp/csvr 260 260 0.1 745823
fix   4 	 rigid2 move linear -0 -0 -0.06
fix   3	         all deform 1 z delta 0 -6  remap v

run   		 5900000 upto
Generated 0 of 1 mixed pair_coeff terms from geometric mixing rule
  update every 10 steps, delay 0 steps, check no
Step          Temp          PotEng         TotEng         E_pair         E_mol          Press            Lx             Ly             Lz             Xy             Xz             Yz           Volume          Pxx            Pyy            Pzz            Pxy            Pxz            Pyz           Cella          Cellb          Cellc        CellAlpha       CellBeta      CellGamma
5800000   0             -358.90846     -358.90846     -358.90846      0             -3483.3175      31.164278      21.491243      37.685345     -9.197045      -21.19022      -32.124252      25240.102      2696.2332     -7967.8612     -5178.3246      4377.7378     -2912.9016      1810.0678      31.164278      23.376466      53.862586      113.17445      113.16701      113.16821
Averages over the last 101 of 201 rows, steps 5850000 to 5900000:
Temp PotEng TotEng E_pair E_mol Press Lx Ly Lz Xy Xz Yz Volume Pxx Pyy Pzz Pxy Pxz Pyz Cella Cellb Cellc CellAlpha CellBeta CellGamma
32.5466 -374.52 -363.62 -374.52 0 4169.91 31.1643 21.4912 33.1853 -9.19704 -21.1902 -32.1243 22226.2 9304.38 -2498.35 5703.71 5145.07 -2954.51 2106.99 31.1643 23.3765 50.8203 114.655 114.647 113.168
Loop time of 657.097 on 1 procs for 100000 steps with 2592 atoms
