LAMMPS (15 Apr 2020)
Processor partition = 0
package omp 0
using multi-threaded neighbor list subroutines
echo both

include		in.partitions
variable        pid world 0
include		in.temp
variable	temperature equal 300.0
variable	tempDamp equal 100.0
include		in.pressure
variable        pressure equal 10000.
variable        pressureDamp equal 1000.0 # This is 1 ps
include		in.seed
variable        seed world 745823

units		real
atom_style	full
include		in.box
read_data       iceVI.data
  triclinic box = (0.002798 0.002798 0.008814) to (24.7272 24.7272 22.8012) with tilt (0 0 0)
  reading atoms ...
  1920 atoms
  scanning bonds ...
  scanning angles ...
  reading bonds ...
  1280 bonds
  reading angles ...
  640 angles
include 	in.setup
variable	out_freq equal 500
variable	out_freq2 equal 500

timestep	2.0

neigh_modify    delay 7 every 1

include		in.tip4p
# This is TIP4P/Ice

# create groups ###
group ox type 2
640 atoms in group ox
group hy type 1
1280 atoms in group hy

# set charges - beside manually ###
set group ox charge -1.1794
  640 settings made for charge
set group hy charge 0.5897
  1280 settings made for charge

# ### TIP3P Potential Parameters ###
pair_style lj/cut/tip4p/long 2 1 1 1 0.1577 8.5
pair_coeff 1 1*2 0.000 0.000
pair_coeff 2 2 0.21084 3.1668
bond_style  harmonic
bond_coeff  1 450 0.9572
angle_style harmonic
angle_coeff 1 55 104.52
kspace_style pppm/tip4p 1.0e-5
pair_modify tail yes

thermo          500
thermo_style 	custom step temp pe etotal epair emol press lx ly lz xy xz yz vol pxx pyy pzz pxy pxz pyz

restart 	500 restart.lmp.0 restart2.lmp.0

include         in.dump
dump            myDump all atom 500 dump.water.0
dump            myDump2 all dcd 500 dump.dcd
dump_modify     myDump append yes
dump_modify     myDump2 append yes

timer           timeout 00:55:00 every 1000
New timer settings: style=normal  mode=nosync  timeout=00:55:00

fix 		1 all shake 1e-6 200 0 b 1 a 1
  find clusters CPU = 0.000445087 secs
fix             2 all nph tri 10000 10000 1000
fix             3 all temp/csvr 300 300 100 745823
velocity 	all create 300 745823 dist gaussian

run             500000
PPPM initialization ...
  extracting TIP4P info from pair style
  G vector (1/distance) = 0.375145
  grid = 30 30 30
  stencil order = 5
  estimated absolute RMS force accuracy = 0.00319074
  estimated relative force accuracy = 9.60881e-06
  3d grid and FFT values/proc = 11616 3600
Last active /omp style is kspace_style pppm/tip4p/omp
  update every 1 steps, delay 7 steps, check yes
Step Temp PotEng TotEng E_pair E_mol Press Lx Ly Lz Xy Xz Yz Volume Pxx Pyy Pzz Pxy Pxz Pyz
0          300    -9504.372   -8360.6352    -9504.372            0    8088.3238    24.724405    24.724405    22.792372            0            0            0     13932.89    12893.805    11538.999   -167.83276   -1165.1485   -558.96604    1416.3458
Averages over the last 501 of 1001 rows, steps 250000 to 500000:
Temp PotEng TotEng E_pair E_mol Press Lx Ly Lz Xy Xz Yz Volume Pxx Pyy Pzz Pxy Pxz Pyz
300.051 -8932.39 -7788.46 -8932.39 0 10040.7 24.9997 24.9668 23.0174 -0.0629465 -0.089172 -0.0326304 14366.4 9982.39 10102.4 10037.4 -9.42692 -9.73939 13.7637
Loop time of 2325.73 on 8 procs for 500000 steps with 1920 atoms

unfix		3
unfix		2
unfix		1

write_data	data.final.0
PPPM initialization ...
  extracting TIP4P info from pair style
  G vector (1/distance) = 0.376072
  grid = 30 32 30
  stencil order = 5
  estimated absolute RMS force accuracy = 0.00298782
  estimated relative force accuracy = 8.99773e-06
  3d grid and FFT values/proc = 12144 3840
Last active /omp style is kspace_style pppm/tip4p/omp

write_restart   restart.lmp.0
PPPM initialization ...
  extracting TIP4P info from pair style
  G vector (1/distance) = 0.376072
  grid = 30 32 30
  stencil order = 5
  estimated absolute RMS force accuracy = 0.00298782
  estimated relative force accuracy = 8.99773e-06
  3d grid and FFT values/proc = 12144 3840
Last active /omp style is kspace_style pppm/tip4p/omp
