LAMMPS (15 Apr 2020)
Processor partition = 0
package omp 0
using multi-threaded neighbor list subroutines
echo both

include		in.partitions
variable        pid world 0
include		in.temp
variable	temperature equal 300.0
variable	tempDamp equal 100.0
include		in.pressure
variable        pressure equal 10000.
variable        pressureDamp equal 1000.0 # This is 1 ps
include		in.seed
variable        seed world 745823

units		real
atom_style	full
include		in.box
read_data       water.data
  orthogonal box = (0 1.09153 0) to (18.2076 22.5376 22.2132)
  reading atoms ...
  864 atoms
  reading velocities ...
  864 velocities
  scanning bonds ...
  scanning angles ...
  reading bonds ...
  576 bonds
  reading angles ...
  288 angles
include 	in.setup
variable	out_freq equal 500
variable	out_freq2 equal 500

timestep	2.0

neigh_modify    delay 7 every 1

include		in.tip4p
# This is TIP4P/Ice

# create groups ###
group ox type 2
288 atoms in group ox
group hy type 1
576 atoms in group hy

# set charges - beside manually ###
set group ox charge -1.1794
  288 settings made for charge
set group hy charge 0.5897
  576 settings made for charge

# ### TIP3P Potential Parameters ###
pair_style lj/cut/tip4p/long 2 1 1 1 0.1577 8.5
pair_coeff 1 1*2 0.000 0.000
pair_coeff 2 2 0.21084 3.1668
bond_style  harmonic
bond_coeff  1 450 0.9572
angle_style harmonic
angle_coeff 1 55 104.52
kspace_style pppm/tip4p 1.0e-5
pair_modify tail yes

thermo          500
thermo_style 	custom step temp pe etotal epair emol press lx ly lz vol pxx pyy pzz pxy pxz pyz

restart 	500 restart.lmp.0 restart2.lmp.0

include         in.dump
dump            myDump all atom 500 dump.water.0
dump            myDump2 all dcd 500 dump.dcd
dump_modify     myDump append yes
dump_modify     myDump2 append yes

timer           timeout 00:55:00 every 1000
New timer settings: style=normal  mode=nosync  timeout=00:55:00

fix 		1 all shake 1e-6 200 0 b 1 a 1
  find clusters CPU = 0.000450809 secs
fix             2 all nph iso 10000 10000 1000
fix             3 all temp/csvr 300 300 100 745823
velocity 	all create 300 745823 dist gaussian

run             500000
PPPM initialization ...
  extracting TIP4P info from pair style
  G vector (1/distance) = 0.371448
  grid = 24 25 25
  stencil order = 5
  estimated absolute RMS force accuracy = 0.00331186
  estimated relative force accuracy = 9.97357e-06
  3d grid and FFT values/proc = 8400 2400
Last active /omp style is kspace_style pppm/tip4p/omp
  update every 1 steps, delay 7 steps, check yes
Step Temp PotEng TotEng E_pair E_mol Press Lx Ly Lz Volume Pxx Pyy Pzz Pxy Pxz Pyz
0          300   -3852.2439   -3338.0542   -3852.2439            0    3467.3083    18.207572    21.446115    22.213196    8673.8464    3133.8643    3776.2156    3491.8451    2131.3549   -2192.9289   -1816.9988
Averages over the last 501 of 1001 rows, steps 250000 to 500000:
Temp PotEng TotEng E_pair E_mol Press Lx Ly Lz Volume Pxx Pyy Pzz Pxy Pxz Pyz
299.807 -3729.12 -3215.26 -3729.12 0 10028.5 16.9571 19.9732 20.6876 7006.77 10018.7 10041.3 10025.5 11.3843 51.7644 38.5195
Loop time of 1238.08 on 8 procs for 500000 steps with 864 atoms

unfix		3
unfix		2
unfix		1

write_data	data.final.0
PPPM initialization ...
  extracting TIP4P info from pair style
  G vector (1/distance) = 0.374728
  grid = 24 24 24
  stencil order = 5
  estimated absolute RMS force accuracy = 0.00310817
  estimated relative force accuracy = 9.36017e-06
  3d grid and FFT values/proc = 7581 1728
Last active /omp style is kspace_style pppm/tip4p/omp

write_restart   restart.lmp.0
PPPM initialization ...
  extracting TIP4P info from pair style
  G vector (1/distance) = 0.374728
  grid = 24 24 24
  stencil order = 5
  estimated absolute RMS force accuracy = 0.00310817
  estimated relative force accuracy = 9.36017e-06
  3d grid and FFT values/proc = 7581 1728
Last active /omp style is kspace_style pppm/tip4p/omp
