LAMMPS (30 Jul 2021)
package omp 0
using multi-threaded neighbor list subroutines
echo both

include		in.partitions
variable        pid world 0
include		in.temp
variable	temperature equal 230.0
variable	melttemp equal 450.0
variable	tempDamp equal 100.0
include		in.pressure
variable        pressure equal 3000.
variable        pressureDamp equal 1000.0 # This is 1 ps
include		in.seed
variable        seed world 745823

units		real
atom_style	full
include		in.box
read_data       iceIII-211.data
Reading data file ...
  orthogonal box = (0.0071020000 0.0044740000 -0.050387000) to (46.652896 19.995527 20.750385)
  reading atoms ...
  2268 atoms
  scanning bonds ...
  scanning angles ...
  reading bonds ...
  1512 bonds
  reading angles ...
  756 angles
Finding 1-2 1-3 1-4 neighbors ...
     2 = max # of 1-2 neighbors
     1 = max # of 1-3 neighbors
     1 = max # of 1-4 neighbors
     2 = max # of special neighbors
include 	in.setup
variable	out_freq equal 500
variable	out_freq2 equal 500

timestep	1.0

neigh_modify    delay 5 every 1

include		in.tip4p
# This is TIP4P/Ice

# create groups ###
group ox type 2
756 atoms in group ox
group hy type 1
1512 atoms in group hy

# set charges - beside manually ###
set group ox charge -1.1794
Setting atom values ...
  756 settings made for charge
set group hy charge 0.5897
Setting atom values ...
  1512 settings made for charge

# ### TIP3P Potential Parameters ###
pair_style lj/cut/tip4p/long 2 1 1 1 0.1577 8.5
pair_coeff 1 1*2 0.000 0.000
pair_coeff 2 2 0.21084 3.1668
bond_style  harmonic
bond_coeff  1 450 0.9572
angle_style harmonic
angle_coeff 1 55 104.52
kspace_style pppm/tip4p 1.0e-5
pair_modify tail yes

thermo          500
thermo_style 	custom step temp pe etotal epair emol press lx ly lz xy xz yz vol pxx pyy pzz pxy pxz pyz

restart 	500 restart.lmp.0 restart2.lmp.0

include         in.dump
dump            myDump all atom 500 dump.water.0
dump_modify     myDump append yes

timer           timeout 23:50:00 every 1000
New timer settings: style=normal  mode=nosync  timeout=23:50:00

fix 		0 all shake 1e-6 200 0 b 1 a 1
       0 = # of size 2 clusters
       0 = # of size 3 clusters
       0 = # of size 4 clusters
     756 = # of frozen angles
  find clusters CPU = 0.001 seconds
fix             1 all nph aniso 3000 3000 1000
fix             2 all temp/csvr 230 230 100 745823
velocity        all create 230 745823

run             25000
PPPM initialization ...
  extracting TIP4P info from pair style
  G vector (1/distance) = 0.3731327
  grid = 48 27 27
  stencil order = 5
  estimated absolute RMS force accuracy = 0.0032773105
  estimated relative force accuracy = 9.8695233e-06
  3d grid and FFT values/proc = 6292 1344
Last active /omp style is kspace_style pppm/tip4p/omp
  update every 1 steps, delay 5 steps, check yes
Step Temp PotEng TotEng E_pair E_mol Press Lx Ly Lz Xy Xz Yz Volume Pxx Pyy Pzz Pxy Pxz Pyz
0          230   -11706.567   -10670.646   -11706.567            0    2515.3229    46.645794    19.991053    20.800772            0            0            0     19396.69    9621.5165    1112.3362    -3187.884   -1405.5591   -391.02446    2271.5018
Averages over the last 26 of 51 rows, steps 12500 to 25000:
Temp PotEng TotEng E_pair E_mol Press Lx Ly Lz Xy Xz Yz Volume Pxx Pyy Pzz Pxy Pxz Pyz
230.463 -11127.9 -10089.9 -11127.9 0 2937.21 46.8176 20.0385 20.8574 0 0 0 19567.1 2915.06 2970.81 2925.76 -110.593 62.8478 -82.3022
Loop time of 65.8144 on 32 procs for 25000 steps with 2268 atoms

unfix 		1
unfix 		2

# create group to melt
variable	meltPt equal (xlo)+(lx)/2.0
region		meltReg plane 23.3299990000001 0 0 -1 0 0 units box
group		tstatGrp region meltReg
1137 atoms in group tstatGrp

# melt half the box in NPT
fix             1 tstatGrp nph x 3000 3000 1000
fix		2 tstatGrp temp/csvr 230 450 100 745823

run             25000
PPPM initialization ...
  extracting TIP4P info from pair style
  G vector (1/distance) = 0.37296733
  grid = 48 27 27
  stencil order = 5
  estimated absolute RMS force accuracy = 0.0032931077
  estimated relative force accuracy = 9.9170961e-06
  3d grid and FFT values/proc = 6292 1344
Last active /omp style is kspace_style pppm/tip4p/omp
Step Temp PotEng TotEng E_pair E_mol Press Lx Ly Lz Xy Xz Yz Volume Pxx Pyy Pzz Pxy Pxz Pyz
25000    240.60776   -11135.261   -10051.563   -11135.261            0    2497.1722    46.642677    20.187944     20.76992            0            0            0    19557.366    3563.3162    1939.9757    1988.2246   -141.90791    53.365411    130.77254
Averages over the last 26 of 51 rows, steps 37500 to 50000:
Temp PotEng TotEng E_pair E_mol Press Lx Ly Lz Xy Xz Yz Volume Pxx Pyy Pzz Pxy Pxz Pyz
311.34 -10470.7 -9068.37 -10470.7 0 4138.65 46.7187 20.1879 20.7699 0 0 0 19589.3 2965.41 4970.96 4479.57 -179.482 -270.626 340.763
Loop time of 68.3071 on 32 procs for 25000 steps with 2268 atoms

write_restart   restart.melted
System init for write_restart ...
PPPM initialization ...
  extracting TIP4P info from pair style
  G vector (1/distance) = 0.37282893
  grid = 48 27 27
  stencil order = 5
  estimated absolute RMS force accuracy = 0.0033114796
  estimated relative force accuracy = 9.9724224e-06
  3d grid and FFT values/proc = 6292 1344
Last active /omp style is kspace_style pppm/tip4p/omp
write_data   	water.data.melted
System init for write_data ...
PPPM initialization ...
  extracting TIP4P info from pair style
  G vector (1/distance) = 0.37282893
  grid = 48 27 27
  stencil order = 5
  estimated absolute RMS force accuracy = 0.0033114796
  estimated relative force accuracy = 9.9724224e-06
  3d grid and FFT values/proc = 6292 1344
Last active /omp style is kspace_style pppm/tip4p/omp

unfix 		2
fix		2 tstatGrp temp/csvr 450 450 100 745823

run             100000
PPPM initialization ...
  extracting TIP4P info from pair style
  G vector (1/distance) = 0.37282893
  grid = 48 27 27
  stencil order = 5
  estimated absolute RMS force accuracy = 0.0033114796
  estimated relative force accuracy = 9.9724224e-06
  3d grid and FFT values/proc = 6292 1344
Last active /omp style is kspace_style pppm/tip4p/omp
Step Temp PotEng TotEng E_pair E_mol Press Lx Ly Lz Xy Xz Yz Volume Pxx Pyy Pzz Pxy Pxz Pyz
50000    341.33758   -9954.3438    -8416.958   -9954.3438            0    5436.7606    46.821758    20.187944     20.76992            0            0            0    19632.455    5621.3805    5623.0273    5065.8738   -402.84022     418.2001    343.08291
Averages over the last 101 of 201 rows, steps 100000 to 150000:
Temp PotEng TotEng E_pair E_mol Press Lx Ly Lz Xy Xz Yz Volume Pxx Pyy Pzz Pxy Pxz Pyz
341.253 -9869.35 -8332.34 -9869.35 0 4603.02 46.9076 20.1879 20.7699 0 0 0 19668.4 2759.65 5790.88 5258.52 -91.7106 -399.412 142.243
Loop time of 274.873 on 32 procs for 100000 steps with 2268 atoms

write_restart   restart.melted
System init for write_restart ...
PPPM initialization ...
  extracting TIP4P info from pair style
  G vector (1/distance) = 0.37279694
  grid = 48 27 27
  stencil order = 5
  estimated absolute RMS force accuracy = 0.0033157533
  estimated relative force accuracy = 9.9852927e-06
  3d grid and FFT values/proc = 6292 1344
Last active /omp style is kspace_style pppm/tip4p/omp
write_data   	water.data.melted
System init for write_data ...
PPPM initialization ...
  extracting TIP4P info from pair style
  G vector (1/distance) = 0.37279694
  grid = 48 27 27
  stencil order = 5
  estimated absolute RMS force accuracy = 0.0033157533
  estimated relative force accuracy = 9.9852927e-06
  3d grid and FFT values/proc = 6292 1344
Last active /omp style is kspace_style pppm/tip4p/omp

unfix 		2
fix		2 tstatGrp temp/csvr 450 230 100 745823

run             25000
PPPM initialization ...
  extracting TIP4P info from pair style
  G vector (1/distance) = 0.37279694
  grid = 48 27 27
  stencil order = 5
  estimated absolute RMS force accuracy = 0.0033157533
  estimated relative force accuracy = 9.9852927e-06
  3d grid and FFT values/proc = 6292 1344
Last active /omp style is kspace_style pppm/tip4p/omp
Step Temp PotEng TotEng E_pair E_mol Press Lx Ly Lz Xy Xz Yz Volume Pxx Pyy Pzz Pxy Pxz Pyz
150000    334.42778   -9872.6463   -8366.3822   -9872.6463            0    5134.7703    46.862815    20.187944     20.76992            0            0            0     19649.67    5535.4137    5408.4228    4460.4743    43.195137   -834.39785     277.9174
Averages over the last 26 of 51 rows, steps 162500 to 175000:
Temp PotEng TotEng E_pair E_mol Press Lx Ly Lz Xy Xz Yz Volume Pxx Pyy Pzz Pxy Pxz Pyz
259.055 -10516.4 -9349.61 -10516.4 0 3406.34 46.8747 20.1879 20.7699 0 0 0 19654.7 3205.6 3709.54 3303.88 -25.2629 -261.383 223.338
Loop time of 70.0044 on 32 procs for 25000 steps with 2268 atoms

write_restart   restart.melted
System init for write_restart ...
PPPM initialization ...
  extracting TIP4P info from pair style
  G vector (1/distance) = 0.37278019
  grid = 48 27 27
  stencil order = 5
  estimated absolute RMS force accuracy = 0.0033179959
  estimated relative force accuracy = 9.9920461e-06
  3d grid and FFT values/proc = 6292 1344
Last active /omp style is kspace_style pppm/tip4p/omp
write_data   	water.data.melted
System init for write_data ...
PPPM initialization ...
  extracting TIP4P info from pair style
  G vector (1/distance) = 0.37278019
  grid = 48 27 27
  stencil order = 5
  estimated absolute RMS force accuracy = 0.0033179959
  estimated relative force accuracy = 9.9920461e-06
  3d grid and FFT values/proc = 6292 1344
Last active /omp style is kspace_style pppm/tip4p/omp

# enable motion of ice oxygens
unfix		1
unfix		2
fix             1 all nph x 3000 3000 1000
fix             2 all temp/csvr 230 230 100 745823
velocity        all create 230 745823

run             100000
PPPM initialization ...
  extracting TIP4P info from pair style
  G vector (1/distance) = 0.37278019
  grid = 48 27 27
  stencil order = 5
  estimated absolute RMS force accuracy = 0.0033179959
  estimated relative force accuracy = 9.9920461e-06
  3d grid and FFT values/proc = 6292 1344
Last active /omp style is kspace_style pppm/tip4p/omp
Step Temp PotEng TotEng E_pair E_mol Press Lx Ly Lz Xy Xz Yz Volume Pxx Pyy Pzz Pxy Pxz Pyz
175000          230   -10763.606   -9727.6853   -10763.606            0     1072.875     46.88427    20.187944     20.76992            0            0            0    19658.666     1851.364    2039.4675   -672.20664   -358.70327   -1075.8329    3682.1293
Averages over the last 101 of 201 rows, steps 225000 to 275000:
Temp PotEng TotEng E_pair E_mol Press Lx Ly Lz Xy Xz Yz Volume Pxx Pyy Pzz Pxy Pxz Pyz
229.891 -10827.7 -9792.32 -10827.7 0 2991.29 47.3699 20.1879 20.7699 0 0 0 19862.3 3104.46 2750.14 3119.27 86.9316 57.4718 221.36
Loop time of 274.274 on 32 procs for 100000 steps with 2268 atoms

write_restart   restart.equil
System init for write_restart ...
PPPM initialization ...
  extracting TIP4P info from pair style
  G vector (1/distance) = 0.37232857
  grid = 48 27 27
  stencil order = 5
  estimated absolute RMS force accuracy = 0.0033795137
  estimated relative force accuracy = 1.0177305e-05
  3d grid and FFT values/proc = 6292 1344
Last active /omp style is kspace_style pppm/tip4p/omp
write_data   	water.data.equil
System init for write_data ...
PPPM initialization ...
  extracting TIP4P info from pair style
  G vector (1/distance) = 0.37232857
  grid = 48 27 27
  stencil order = 5
  estimated absolute RMS force accuracy = 0.0033795137
  estimated relative force accuracy = 1.0177305e-05
  3d grid and FFT values/proc = 6292 1344
Last active /omp style is kspace_style pppm/tip4p/omp
