CommandNotFoundError: Your shell has not been properly configured to use 'conda activate'.
To initialize your shell, run

    $ conda init <SHELL_NAME>

Currently supported shells are:
  - bash
  - fish
  - tcsh
  - xonsh
  - zsh
  - powershell

See 'conda init --help' for more information and options.

IMPORTANT: You may need to close and restart your shell after running 'conda init'.

ls: cannot access DeePMD/*/: No such file or directory
bash: line 0: cd: bash: No such file or directory
/home/sbore/projects/DeepMDPhaseDiagram/3-AnalyzePerformance/DensityPetrenko
ERROR on proc 0: Cannot open input script start.lmp: No such file or directory (src/lammps.cpp:520)
Last command: (unknown)
application called MPI_Abort(MPI_COMM_WORLD, 1) - process 0
[unset]: write_line error; fd=-1 buf=:cmd=abort exitcode=1
:
system msg for write_line failure : Bad file descriptor

CommandNotFoundError: Your shell has not been properly configured to use 'conda activate'.
To initialize your shell, run

    $ conda init <SHELL_NAME>

Currently supported shells are:
  - bash
  - fish
  - tcsh
  - xonsh
  - zsh
  - powershell

See 'conda init --help' for more information and options.

IMPORTANT: You may need to close and restart your shell after running 'conda init'.

/home/sbore/projects/DeepMDPhaseDiagram/3-AnalyzePerformance/DensityPetrenko/DeePMD/Ice_Ic_0gpa_78.0K
LAMMPS (29 Sep 2021 - Update 3)
Loading plugin: deepmd pair style v2.0 by Han Wang
Loading plugin: compute deeptensor/atom v2.0 by Han Wang
Loading plugin: fix dplr v2.0 by Han Wang

include		in.partitions
variable        pid world 0
include		in.temp
variable	temperature equal 78.0
variable	tempDamp equal 0.100
include		in.pressure
variable        pressure equal 0
variable        pressureDamp equal 1.0000 # This is 1 ps
include		in.seed
variable        seed world 745823

units		metal
atom_style	full
include		in.box

read_data       water.data
Reading data file ...
  orthogonal box = (0.0000000 0.0000000 0.0000000) to (19.145464 19.145464 19.145464)
  reading atoms ...
  648 atoms
Finding 1-2 1-3 1-4 neighbors ...
     0 = max # of 1-2 neighbors
     0 = max # of 1-3 neighbors
     0 = max # of 1-4 neighbors
     1 = max # of special neighbors
include 	in.setup
variable	out_freq equal 500
variable	out_freq2 equal 500

timestep	0.0005

neigh_modify    delay 7 every 1

include		in.deepmd
# This is deepMD model

# create groups ###
#group ox type 2
#group hy type 1

#mass            2 15.9994
#mass            1 1.007840

pair_style      deepmd ../../graph.pb
Summary of lammps deepmd module ...
  >>> Info of deepmd-kit:
  installed to:       /home/sbore/software/miniconda3/envs/deepmd2.1.1
  source:             v2.1.1
  source branch:       HEAD
  source commit:      c4f0cec0
  source commit at:   2022-04-16 11:11:16 +0800
  surpport model ver.:1.1
  build float prec:   double
  build with tf inc:  /home/sbore/software/miniconda3/envs/deepmd2.1.1/include;/home/sbore/software/miniconda3/envs/deepmd2.1.1/include
  build with tf lib:  /home/sbore/software/miniconda3/envs/deepmd2.1.1/lib/libtensorflow_cc.so;/home/sbore/software/miniconda3/envs/deepmd2.1.1/lib/libtensorflow_framework.so
  set tf intra_op_parallelism_threads: 2
  set tf inter_op_parallelism_threads: 2
  >>> Info of lammps module:
  use deepmd-kit at:  /home/sbore/software/miniconda3/envs/deepmd2.1.12022-05-21 12:35:51.988890: I tensorflow/core/platform/cpu_feature_guard.cc:151] This TensorFlow binary is optimized with oneAPI Deep Neural Network Library (oneDNN) to use the following CPU instructions in performance-critical operations:  SSE4.1 SSE4.2 AVX AVX2 AVX512F FMA
To enable them in other operations, rebuild TensorFlow with the appropriate compiler flags.
2022-05-21 12:35:52.807827: I tensorflow/core/common_runtime/gpu/gpu_device.cc:1525] Created device /job:localhost/replica:0/task:0/device:GPU:0 with 5467 MB memory:  -> device: 0, name: NVIDIA GeForce GTX 1060 6GB, pci bus id: 0000:17:00.0, compute capability: 6.1
  >>> Info of model(s):
  rcut in model:      6
  ntypes in model:    2
pair_coeff      * *

bond_style      none
angle_style     none
dihedral_style  none
improper_style  none
neigh_modify exclude none

neighbor        2.0 bin
neigh_modify    every 10 delay 0 check no

thermo          500
thermo_style 	custom step temp pe etotal epair emol press lx ly lz vol pxx pyy pzz pxy pxz pyz cella cellb cellc cellalpha cellbeta cellgamma

thermo_modify   flush yes
restart 	500 restart.lmp.0 restart2.lmp.0

include         in.dump
dump            myDump all atom 500 configurations.lammpstrj
dump_modify     myDump append yes

include in.dump_rerun

###############################
# Dump data into output files #
###############################

# Dump forces every step
dump force all custom 500 force_ev.dat id fx fy fz
dump_modify force sort id append yes

# Dump energy every step
fix             energy all print 500 "$(step) $(pe)" append energy_ev.dat screen no title "#step pe/(ev)"

# Dump box every step
fix             box all print 500 "$(step) $(lx) 0.0 0.0 $(xy) $(ly) 0.0 $(xz) $(yz) $(lz)" append box.dat screen no title "#step lxx lxy lxz lyx lyz lzx lzy lzz"

#include in.dump_avg

timer           timeout 23:45:00 every 250
New timer settings: style=normal  mode=nosync  timeout=23:45:00

fix             2 all nph aniso 0 0 1
fix             3 all temp/csvr 78 78 0.1 745823
velocity 	all create 78 745823 dist gaussian

run             399999 upto

CITE-CITE-CITE-CITE-CITE-CITE-CITE-CITE-CITE-CITE-CITE-CITE-CITE

Your simulation uses code contributions which should be cited:
- USER-DEEPMD package:
The log file lists these citations in BibTeX format.

CITE-CITE-CITE-CITE-CITE-CITE-CITE-CITE-CITE-CITE-CITE-CITE-CITE

  update every 10 steps, delay 0 steps, check no
Setting up Verlet run ...
  Unit style    : metal
  Current step  : 0
  Time step     : 0.0005
  Walltime left : 23:44:59.99
Step Temp PotEng TotEng E_pair E_mol Press Lx Ly Lz Volume Pxx Pyy Pzz Pxy Pxz Pyz Cella Cellb Cellc CellAlpha CellBeta CellGamma
0           78   -128.28984   -121.76659   -128.28984            0    25660.427    19.145464    19.145464    19.145464    7017.7467     25725.05    25778.513    25477.719   -1919.8764   -2116.0018   -1906.6812    19.145464    19.145464    19.145464           90           90           90
Averages over the last 20 of 39 rows, steps 9500 to 19000:
Temp PotEng TotEng E_pair E_mol Press Lx Ly Lz Volume Pxx Pyy Pzz Pxy Pxz Pyz Cella Cellb Cellc CellAlpha CellBeta CellGamma
78.1892 -126.051 -119.512 -126.051 0 -214.258 18.9804 18.9943 19.0125 6854.31 -154.243 -196.588 -291.943 176.658 -382.132 79.7524 18.9804 18.9943 19.0125 90 90 90
CommandNotFoundError: Your shell has not been properly configured to use 'conda activate'.
To initialize your shell, run

    $ conda init <SHELL_NAME>

Currently supported shells are:
  - bash
  - fish
  - tcsh
  - xonsh
  - zsh
  - powershell

See 'conda init --help' for more information and options.

IMPORTANT: You may need to close and restart your shell after running 'conda init'.

/home/sbore/projects/DeepMDPhaseDiagram/3-AnalyzePerformance/DensityPetrenko/DeePMD/Ice_Ic_0gpa_78.0K
LAMMPS (29 Sep 2021 - Update 3)
Loading plugin: deepmd pair style v2.0 by Han Wang
Loading plugin: compute deeptensor/atom v2.0 by Han Wang
Loading plugin: fix dplr v2.0 by Han Wang

include		in.partitions
variable        pid world 0
include		in.temp
variable	temperature equal 78.0
variable	tempDamp equal 0.100
include		in.pressure
variable        pressure equal 0
variable        pressureDamp equal 1.0000 # This is 1 ps
include		in.seed
variable        seed world 745823

units		metal
atom_style	full
include		in.box

read_data       water.data
Reading data file ...
  orthogonal box = (0.0000000 0.0000000 0.0000000) to (19.145464 19.145464 19.145464)
  reading atoms ...
  648 atoms
Finding 1-2 1-3 1-4 neighbors ...
     0 = max # of 1-2 neighbors
     0 = max # of 1-3 neighbors
     0 = max # of 1-4 neighbors
     1 = max # of special neighbors
include 	in.setup
variable	out_freq equal 500
variable	out_freq2 equal 500

timestep	0.0005

neigh_modify    delay 7 every 1

include		in.deepmd
# This is deepMD model

# create groups ###
#group ox type 2
#group hy type 1

#mass            2 15.9994
#mass            1 1.007840

pair_style      deepmd ../../graph.pb
Summary of lammps deepmd module ...
  >>> Info of deepmd-kit:
  installed to:       /home/sbore/software/miniconda3/envs/deepmd2.1.1
  source:             v2.1.1
  source branch:       HEAD
  source commit:      c4f0cec0
  source commit at:   2022-04-16 11:11:16 +0800
  surpport model ver.:1.1
  build float prec:   double
  build with tf inc:  /home/sbore/software/miniconda3/envs/deepmd2.1.1/include;/home/sbore/software/miniconda3/envs/deepmd2.1.1/include
  build with tf lib:  /home/sbore/software/miniconda3/envs/deepmd2.1.1/lib/libtensorflow_cc.so;/home/sbore/software/miniconda3/envs/deepmd2.1.1/lib/libtensorflow_framework.so
  set tf intra_op_parallelism_threads: 2
  set tf inter_op_parallelism_threads: 2
  >>> Info of lammps module:
  use deepmd-kit at:  /home/sbore/software/miniconda3/envs/deepmd2.1.12022-05-21 12:45:00.865662: I tensorflow/core/platform/cpu_feature_guard.cc:151] This TensorFlow binary is optimized with oneAPI Deep Neural Network Library (oneDNN) to use the following CPU instructions in performance-critical operations:  SSE4.1 SSE4.2 AVX AVX2 AVX512F FMA
To enable them in other operations, rebuild TensorFlow with the appropriate compiler flags.
2022-05-21 12:45:01.876238: I tensorflow/core/common_runtime/gpu/gpu_device.cc:1525] Created device /job:localhost/replica:0/task:0/device:GPU:0 with 5467 MB memory:  -> device: 0, name: NVIDIA GeForce GTX 1060 6GB, pci bus id: 0000:17:00.0, compute capability: 6.1
  >>> Info of model(s):
  rcut in model:      6
  ntypes in model:    2
pair_coeff      * *

bond_style      none
angle_style     none
dihedral_style  none
improper_style  none
neigh_modify exclude none

neighbor        2.0 bin
neigh_modify    every 10 delay 0 check no

thermo          500
thermo_style 	custom step temp pe etotal epair emol press lx ly lz vol pxx pyy pzz pxy pxz pyz cella cellb cellc cellalpha cellbeta cellgamma

thermo_modify   flush yes
restart 	500 restart.lmp.0 restart2.lmp.0

include         in.dump
dump            myDump all atom 500 configurations.lammpstrj
dump_modify     myDump append yes

include in.dump_rerun

###############################
# Dump data into output files #
###############################

# Dump forces every step
dump force all custom 500 force_ev.dat id fx fy fz
dump_modify force sort id append yes

# Dump energy every step
fix             energy all print 500 "$(step) $(pe)" append energy_ev.dat screen no title "#step pe/(ev)"

# Dump box every step
fix             box all print 500 "$(step) $(lx) 0.0 0.0 $(xy) $(ly) 0.0 $(xz) $(yz) $(lz)" append box.dat screen no title "#step lxx lxy lxz lyx lyz lzx lzy lzz"

#include in.dump_avg

timer           timeout 23:45:00 every 250
New timer settings: style=normal  mode=nosync  timeout=23:45:00

fix             2 all nph aniso 0 0 1
fix             3 all temp/csvr 78 78 0.1 745823
velocity 	all create 78 745823 dist gaussian

run             199999 upto

CITE-CITE-CITE-CITE-CITE-CITE-CITE-CITE-CITE-CITE-CITE-CITE-CITE

Your simulation uses code contributions which should be cited:
- USER-DEEPMD package:
The log file lists these citations in BibTeX format.

CITE-CITE-CITE-CITE-CITE-CITE-CITE-CITE-CITE-CITE-CITE-CITE-CITE

  update every 10 steps, delay 0 steps, check no
Setting up Verlet run ...
  Unit style    : metal
  Current step  : 0
  Time step     : 0.0005
  Walltime left : 23:44:59.99
Step Temp PotEng TotEng E_pair E_mol Press Lx Ly Lz Volume Pxx Pyy Pzz Pxy Pxz Pyz Cella Cellb Cellc CellAlpha CellBeta CellGamma
0           78   -128.28984   -121.76659   -128.28984            0    25660.427    19.145464    19.145464    19.145464    7017.7467     25725.05    25778.513    25477.719   -1919.8764   -2116.0018   -1906.6812    19.145464    19.145464    19.145464           90           90           90
Averages over the last 400 of 800 rows, steps 100000 to 199999:
Temp PotEng TotEng E_pair E_mol Press Lx Ly Lz Volume Pxx Pyy Pzz Pxy Pxz Pyz Cella Cellb Cellc CellAlpha CellBeta CellGamma
77.7701 -126.15 -119.646 -126.15 0 21.5237 19.0056 19.0218 19.0385 6882.7 15.2541 31.3034 18.0137 12.7112 -93.4317 -109.807 19.0056 19.0218 19.0385 90 90 90
Loop time of 11065.4 on 4 procs for 199999 steps with 648 atoms

unfix		3
unfix		2

write_data	data.final.0
System init for write_data ...

write_restart   restart.lmp.0
System init for write_restart ...
Unloading pair style deepmd
Unloading compute style deeptensor/atom
Unloading fix style dplr
/home/sbore/projects/DeepMDPhaseDiagram/3-AnalyzePerformance/DensityPetrenko/DeePMD/Ice_Ih_0gpa_250.0K
LAMMPS (29 Sep 2021 - Update 3)
Loading plugin: deepmd pair style v2.0 by Han Wang
Loading plugin: compute deeptensor/atom v2.0 by Han Wang
Loading plugin: fix dplr v2.0 by Han Wang

include		in.partitions
variable        pid world 0
include		in.temp
variable	temperature equal 250.0
variable	tempDamp equal 0.100
include		in.pressure
variable        pressure equal 0
variable        pressureDamp equal 1.0000 # This is 1 ps
include		in.seed
variable        seed world 745823

units		metal
atom_style	full
include		in.box

read_data       water.data
Reading data file ...
  orthogonal box = (0.0000000 0.0000000 0.0000000) to (23.468513 22.060719 27.109556)
  reading atoms ...
  1296 atoms
Finding 1-2 1-3 1-4 neighbors ...
     0 = max # of 1-2 neighbors
     0 = max # of 1-3 neighbors
     0 = max # of 1-4 neighbors
     1 = max # of special neighbors
include 	in.setup
variable	out_freq equal 500
variable	out_freq2 equal 500

timestep	0.0005

neigh_modify    delay 7 every 1

include		in.deepmd
# This is deepMD model

# create groups ###
#group ox type 2
#group hy type 1

#mass            2 15.9994
#mass            1 1.007840

pair_style      deepmd ../../graph.pb
Summary of lammps deepmd module ...
  >>> Info of deepmd-kit:
  installed to:       /home/sbore/software/miniconda3/envs/deepmd2.1.1
  source:             v2.1.1
  source branch:       HEAD
  source commit:      c4f0cec0
  source commit at:   2022-04-16 11:11:16 +0800
  surpport model ver.:1.1
  build float prec:   double
  build with tf inc:  /home/sbore/software/miniconda3/envs/deepmd2.1.1/include;/home/sbore/software/miniconda3/envs/deepmd2.1.1/include
  build with tf lib:  /home/sbore/software/miniconda3/envs/deepmd2.1.1/lib/libtensorflow_cc.so;/home/sbore/software/miniconda3/envs/deepmd2.1.1/lib/libtensorflow_framework.so
  set tf intra_op_parallelism_threads: 2
  set tf inter_op_parallelism_threads: 2
  >>> Info of lammps module:
  use deepmd-kit at:  /home/sbore/software/miniconda3/envs/deepmd2.1.12022-05-21 15:49:30.159462: I tensorflow/core/platform/cpu_feature_guard.cc:151] This TensorFlow binary is optimized with oneAPI Deep Neural Network Library (oneDNN) to use the following CPU instructions in performance-critical operations:  SSE4.1 SSE4.2 AVX AVX2 AVX512F FMA
To enable them in other operations, rebuild TensorFlow with the appropriate compiler flags.
2022-05-21 15:49:31.019401: I tensorflow/core/common_runtime/gpu/gpu_device.cc:1525] Created device /job:localhost/replica:0/task:0/device:GPU:0 with 5467 MB memory:  -> device: 0, name: NVIDIA GeForce GTX 1060 6GB, pci bus id: 0000:17:00.0, compute capability: 6.1
  >>> Info of model(s):
  rcut in model:      6
  ntypes in model:    2
pair_coeff      * *

bond_style      none
angle_style     none
dihedral_style  none
improper_style  none
neigh_modify exclude none

neighbor        2.0 bin
neigh_modify    every 10 delay 0 check no

thermo          500
thermo_style 	custom step temp pe etotal epair emol press lx ly lz vol pxx pyy pzz pxy pxz pyz cella cellb cellc cellalpha cellbeta cellgamma

thermo_modify   flush yes
restart 	500 restart.lmp.0 restart2.lmp.0

include         in.dump
dump            myDump all atom 500 configurations.lammpstrj
dump_modify     myDump append yes

include in.dump_rerun

###############################
# Dump data into output files #
###############################

# Dump forces every step
dump force all custom 500 force_ev.dat id fx fy fz
dump_modify force sort id append yes

# Dump energy every step
fix             energy all print 500 "$(step) $(pe)" append energy_ev.dat screen no title "#step pe/(ev)"

# Dump box every step
fix             box all print 500 "$(step) $(lx) 0.0 0.0 $(xy) $(ly) 0.0 $(xz) $(yz) $(lz)" append box.dat screen no title "#step lxx lxy lxz lyx lyz lzx lzy lzz"

#include in.dump_avg

timer           timeout 23:45:00 every 250
New timer settings: style=normal  mode=nosync  timeout=23:45:00

fix             2 all nph aniso 0 0 1
fix             3 all temp/csvr 250 250 0.1 745823
velocity 	all create 250 745823 dist gaussian

run             199999 upto

CITE-CITE-CITE-CITE-CITE-CITE-CITE-CITE-CITE-CITE-CITE-CITE-CITE

Your simulation uses code contributions which should be cited:
- USER-DEEPMD package:
The log file lists these citations in BibTeX format.

CITE-CITE-CITE-CITE-CITE-CITE-CITE-CITE-CITE-CITE-CITE-CITE-CITE

  update every 10 steps, delay 0 steps, check no
Setting up Verlet run ...
  Unit style    : metal
  Current step  : 0
  Time step     : 0.0005
  Walltime left : 23:44:59.99
Step Temp PotEng TotEng E_pair E_mol Press Lx Ly Lz Volume Pxx Pyy Pzz Pxy Pxz Pyz Cella Cellb Cellc CellAlpha CellBeta CellGamma
0          250   -255.59867    -213.7507   -255.59867            0    29828.119    23.468513    22.060719    27.109556    14035.492    29214.645    30475.786    29793.925   -659.57581    298.29737    228.61188    23.468513    22.060719    27.109556           90           90           90
Averages over the last 308 of 616 rows, steps 63500 to 399999:
Temp PotEng TotEng E_pair E_mol Press Lx Ly Lz Volume Pxx Pyy Pzz Pxy Pxz Pyz Cella Cellb Cellc CellAlpha CellBeta CellGamma
148.467 -164.809 -143.798 -164.809 0 -10.1388 20.8631 20.3024 22.3526 9854.19 -11.4667 -35.6506 16.7008 -53.4909 36.838 -48.1285 20.8631 20.3024 22.3526 90 90 90
Loop time of 23291 on 4 procs for 399999 steps with 648 atoms

unfix		3
unfix		2

write_data	data.final.0
System init for write_data ...

write_restart   restart.lmp.0
System init for write_restart ...
Unloading pair style deepmd
Unloading compute style deeptensor/atom
Unloading fix style dplr
/home/sbore/projects/DeepMDPhaseDiagram/3-AnalyzePerformance/DensityPetrenko/DeePMD/Ice_Ih_0gpa_250.0K
LAMMPS (29 Sep 2021 - Update 3)
Loading plugin: deepmd pair style v2.0 by Han Wang
Loading plugin: compute deeptensor/atom v2.0 by Han Wang
Loading plugin: fix dplr v2.0 by Han Wang

include		in.partitions
variable        pid world 0
include		in.temp
variable	temperature equal 250.0
variable	tempDamp equal 0.100
include		in.pressure
variable        pressure equal 0
variable        pressureDamp equal 1.0000 # This is 1 ps
include		in.seed
variable        seed world 745823

units		metal
atom_style	full
include		in.box

read_data       water.data
Reading data file ...
  orthogonal box = (0.0000000 0.0000000 0.0000000) to (23.468513 22.060719 27.109556)
  reading atoms ...
  1296 atoms
Finding 1-2 1-3 1-4 neighbors ...
     0 = max # of 1-2 neighbors
     0 = max # of 1-3 neighbors
     0 = max # of 1-4 neighbors
     1 = max # of special neighbors
include 	in.setup
variable	out_freq equal 500
variable	out_freq2 equal 500

timestep	0.0005

neigh_modify    delay 7 every 1

include		in.deepmd
# This is deepMD model

# create groups ###
#group ox type 2
#group hy type 1

#mass            2 15.9994
#mass            1 1.007840

pair_style      deepmd ../../graph.pb
Summary of lammps deepmd module ...
  >>> Info of deepmd-kit:
  installed to:       /home/sbore/software/miniconda3/envs/deepmd2.1.1
  source:             v2.1.1
  source branch:       HEAD
  source commit:      c4f0cec0
  source commit at:   2022-04-16 11:11:16 +0800
  surpport model ver.:1.1
  build float prec:   double
  build with tf inc:  /home/sbore/software/miniconda3/envs/deepmd2.1.1/include;/home/sbore/software/miniconda3/envs/deepmd2.1.1/include
  build with tf lib:  /home/sbore/software/miniconda3/envs/deepmd2.1.1/lib/libtensorflow_cc.so;/home/sbore/software/miniconda3/envs/deepmd2.1.1/lib/libtensorflow_framework.so
  set tf intra_op_parallelism_threads: 2
  set tf inter_op_parallelism_threads: 2
  >>> Info of lammps module:
  use deepmd-kit at:  /home/sbore/software/miniconda3/envs/deepmd2.1.12022-05-21 19:04:06.507289: I tensorflow/core/platform/cpu_feature_guard.cc:151] This TensorFlow binary is optimized with oneAPI Deep Neural Network Library (oneDNN) to use the following CPU instructions in performance-critical operations:  SSE4.1 SSE4.2 AVX AVX2 AVX512F FMA
To enable them in other operations, rebuild TensorFlow with the appropriate compiler flags.
2022-05-21 19:04:07.398786: I tensorflow/core/common_runtime/gpu/gpu_device.cc:1525] Created device /job:localhost/replica:0/task:0/device:GPU:0 with 5467 MB memory:  -> device: 0, name: NVIDIA GeForce GTX 1060 6GB, pci bus id: 0000:17:00.0, compute capability: 6.1
  >>> Info of model(s):
  rcut in model:      6
  ntypes in model:    2
pair_coeff      * *

bond_style      none
angle_style     none
dihedral_style  none
improper_style  none
neigh_modify exclude none

neighbor        2.0 bin
neigh_modify    every 10 delay 0 check no

thermo          500
thermo_style 	custom step temp pe etotal epair emol press lx ly lz vol pxx pyy pzz pxy pxz pyz cella cellb cellc cellalpha cellbeta cellgamma

thermo_modify   flush yes
restart 	500 restart.lmp.0 restart2.lmp.0

include         in.dump
dump            myDump all atom 500 configurations.lammpstrj
dump_modify     myDump append yes

include in.dump_rerun

###############################
# Dump data into output files #
###############################

# Dump forces every step
dump force all custom 500 force_ev.dat id fx fy fz
dump_modify force sort id append yes

# Dump energy every step
fix             energy all print 500 "$(step) $(pe)" append energy_ev.dat screen no title "#step pe/(ev)"

# Dump box every step
fix             box all print 500 "$(step) $(lx) 0.0 0.0 $(xy) $(ly) 0.0 $(xz) $(yz) $(lz)" append box.dat screen no title "#step lxx lxy lxz lyx lyz lzx lzy lzz"

#include in.dump_avg

timer           timeout 23:45:00 every 250
New timer settings: style=normal  mode=nosync  timeout=23:45:00

fix             2 all nph aniso 0 0 1
fix             3 all temp/csvr 250 250 0.1 745823
velocity 	all create 250 745823 dist gaussian

run             199999 upto

CITE-CITE-CITE-CITE-CITE-CITE-CITE-CITE-CITE-CITE-CITE-CITE-CITE

Your simulation uses code contributions which should be cited:
- USER-DEEPMD package:
The log file lists these citations in BibTeX format.

CITE-CITE-CITE-CITE-CITE-CITE-CITE-CITE-CITE-CITE-CITE-CITE-CITE

  update every 10 steps, delay 0 steps, check no
Setting up Verlet run ...
  Unit style    : metal
  Current step  : 0
  Time step     : 0.0005
  Walltime left : 23:44:59.99
Step Temp PotEng TotEng E_pair E_mol Press Lx Ly Lz Volume Pxx Pyy Pzz Pxy Pxz Pyz Cella Cellb Cellc CellAlpha CellBeta CellGamma
0          250   -255.59867    -213.7507   -255.59867            0    29828.119    23.468513    22.060719    27.109556    14035.492    29214.645    30475.786    29793.925   -659.57581    298.29737    228.61188    23.468513    22.060719    27.109556           90           90           90
Averages over the last 146 of 292 rows, steps 36500 to 199999:
Temp PotEng TotEng E_pair E_mol Press Lx Ly Lz Volume Pxx Pyy Pzz Pxy Pxz Pyz Cella Cellb Cellc CellAlpha CellBeta CellGamma
250.459 -219.819 -177.894 -219.819 0 10.7071 23.5251 22.1367 27.0998 14112.5 -31.3869 67.3556 -3.84746 -15.2108 41.1462 -94.532 23.5251 22.1367 27.0998 90 90 90
Loop time of 19271.1 on 4 procs for 199999 steps with 1296 atoms

unfix		3
unfix		2

write_data	data.final.0
System init for write_data ...

write_restart   restart.lmp.0
System init for write_restart ...
Unloading pair style deepmd
Unloading compute style deeptensor/atom
Unloading fix style dplr
/home/sbore/projects/DeepMDPhaseDiagram/3-AnalyzePerformance/DensityPetrenko/DeePMD/Ice_II_0.0gpa_250K
LAMMPS (29 Sep 2021 - Update 3)
Loading plugin: deepmd pair style v2.0 by Han Wang
Loading plugin: compute deeptensor/atom v2.0 by Han Wang
Loading plugin: fix dplr v2.0 by Han Wang

include		in.partitions
variable        pid world 0
include		in.temp
variable	temperature equal 250
variable	tempDamp equal 0.100
include		in.pressure
variable        pressure equal 0.0
variable        pressureDamp equal 1.0000 # This is 1 ps
include		in.seed
variable        seed world 745823

units		metal
atom_style	full
include		in.box
box tilt large
read_data       water.data
Reading data file ...
  triclinic box = (0.0000000 0.0000000 0.0000000) to (23.340000 21.468634 16.394173) with tilt (-9.1571500 -9.1571500 -13.861213)
  reading atoms ...
  972 atoms
Finding 1-2 1-3 1-4 neighbors ...
     0 = max # of 1-2 neighbors
     0 = max # of 1-3 neighbors
     0 = max # of 1-4 neighbors
     1 = max # of special neighbors
include 	in.setup
variable	out_freq equal 500
variable	out_freq2 equal 500

timestep	0.0005

neigh_modify    delay 7 every 1

include		in.deepmd
# This is deepMD model

# create groups ###
#group ox type 2
#group hy type 1

#mass            2 15.9994
#mass            1 1.007840

pair_style      deepmd ../../graph.pb
Summary of lammps deepmd module ...
  >>> Info of deepmd-kit:
  installed to:       /home/sbore/software/miniconda3/envs/deepmd2.1.1
  source:             v2.1.1
  source branch:       HEAD
  source commit:      c4f0cec0
  source commit at:   2022-04-16 11:11:16 +0800
  surpport model ver.:1.1
  build float prec:   double
  build with tf inc:  /home/sbore/software/miniconda3/envs/deepmd2.1.1/include;/home/sbore/software/miniconda3/envs/deepmd2.1.1/include
  build with tf lib:  /home/sbore/software/miniconda3/envs/deepmd2.1.1/lib/libtensorflow_cc.so;/home/sbore/software/miniconda3/envs/deepmd2.1.1/lib/libtensorflow_framework.so
  set tf intra_op_parallelism_threads: 2
  set tf inter_op_parallelism_threads: 2
  >>> Info of lammps module:
  use deepmd-kit at:  /home/sbore/software/miniconda3/envs/deepmd2.1.12022-05-21 21:10:44.842006: I tensorflow/core/platform/cpu_feature_guard.cc:151] This TensorFlow binary is optimized with oneAPI Deep Neural Network Library (oneDNN) to use the following CPU instructions in performance-critical operations:  SSE4.1 SSE4.2 AVX AVX2 AVX512F FMA
To enable them in other operations, rebuild TensorFlow with the appropriate compiler flags.
2022-05-21 21:10:45.756257: I tensorflow/core/common_runtime/gpu/gpu_device.cc:1525] Created device /job:localhost/replica:0/task:0/device:GPU:0 with 5467 MB memory:  -> device: 0, name: NVIDIA GeForce GTX 1060 6GB, pci bus id: 0000:17:00.0, compute capability: 6.1
  >>> Info of model(s):
  rcut in model:      6
  ntypes in model:    2
pair_coeff      * *

bond_style      none
angle_style     none
dihedral_style  none
improper_style  none
neigh_modify exclude none

neighbor        2.0 bin
neigh_modify    every 10 delay 0 check no

thermo          500
thermo_style 	custom step temp pe etotal epair emol press lx ly lz vol pxx pyy pzz pxy pxz pyz cella cellb cellc cellalpha cellbeta cellgamma

thermo_modify   flush yes
restart 	500 restart.lmp.0 restart2.lmp.0

include         in.dump
dump            myDump all atom 500 configurations.lammpstrj
dump_modify     myDump append yes

include in.dump_rerun

###############################
# Dump data into output files #
###############################

# Dump forces every step
dump force all custom 500 force_ev.dat id fx fy fz
dump_modify force sort id append yes

# Dump energy every step
fix             energy all print 500 "$(step) $(pe)" append energy_ev.dat screen no title "#step pe/(ev)"

# Dump box every step
fix             box all print 500 "$(step) $(lx) 0.0 0.0 $(xy) $(ly) 0.0 $(xz) $(yz) $(lz)" append box.dat screen no title "#step lxx lxy lxz lyx lyz lzx lzy lzz"

#include in.dump_avg

timer           timeout 23:45:00 every 250
New timer settings: style=normal  mode=nosync  timeout=23:45:00

fix             2 all nph tri 0 0 1
fix             3 all temp/csvr 250 250 0.1 745823
velocity 	all create 250 745823 dist gaussian

run             199999 upto

CITE-CITE-CITE-CITE-CITE-CITE-CITE-CITE-CITE-CITE-CITE-CITE-CITE

Your simulation uses code contributions which should be cited:
- USER-DEEPMD package:
The log file lists these citations in BibTeX format.

CITE-CITE-CITE-CITE-CITE-CITE-CITE-CITE-CITE-CITE-CITE-CITE-CITE

  update every 10 steps, delay 0 steps, check no
Setting up Verlet run ...
  Unit style    : metal
  Current step  : 0
  Time step     : 0.0005
  Walltime left : 23:44:59.99
Step Temp PotEng TotEng E_pair E_mol Press Lx Ly Lz Volume Pxx Pyy Pzz Pxy Pxz Pyz Cella Cellb Cellc CellAlpha CellBeta CellGamma
0          250   -189.73635   -158.35845   -189.73635            0    32017.697        23.34    21.468634    16.394173    8214.7581    29427.801    30757.277    35868.014    1478.5692    1266.7251    3939.8025        23.34    23.340001    23.339999    113.10001    113.10001        113.1
Averages over the last 270 of 540 rows, steps 71500 to 199999:
Temp PotEng TotEng E_pair E_mol Press Lx Ly Lz Volume Pxx Pyy Pzz Pxy Pxz Pyz Cella Cellb Cellc CellAlpha CellBeta CellGamma
249.01 -189.354 -153.181 -189.354 0 -1.12733 23.5174 21.874 21.5265 11106.4 -157.769 148.37 6.01705 -58.2127 -57.7201 -91.5722 23.5174 22.8665 22.8094 81.7337 81.7038 102.198
Loop time of 20347.2 on 4 procs for 199999 steps with 1296 atoms

unfix		3
unfix		2

write_data	data.final.0
System init for write_data ...

write_restart   restart.lmp.0
System init for write_restart ...
Unloading pair style deepmd
Unloading compute style deeptensor/atom
Unloading fix style dplr
/home/sbore/projects/DeepMDPhaseDiagram/3-AnalyzePerformance/DensityPetrenko/DeePMD/Ice_II_0.0gpa_250K
LAMMPS (29 Sep 2021 - Update 3)
Loading plugin: deepmd pair style v2.0 by Han Wang
Loading plugin: compute deeptensor/atom v2.0 by Han Wang
Loading plugin: fix dplr v2.0 by Han Wang

include		in.partitions
variable        pid world 0
include		in.temp
variable	temperature equal 250
variable	tempDamp equal 0.100
include		in.pressure
variable        pressure equal 0.0
variable        pressureDamp equal 1.0000 # This is 1 ps
include		in.seed
variable        seed world 745823

units		metal
atom_style	full
include		in.box
box tilt large
read_data       water.data
Reading data file ...
  triclinic box = (0.0000000 0.0000000 0.0000000) to (23.340000 21.468634 16.394173) with tilt (-9.1571500 -9.1571500 -13.861213)
  reading atoms ...
  972 atoms
Finding 1-2 1-3 1-4 neighbors ...
     0 = max # of 1-2 neighbors
     0 = max # of 1-3 neighbors
     0 = max # of 1-4 neighbors
     1 = max # of special neighbors
include 	in.setup
variable	out_freq equal 500
variable	out_freq2 equal 500

timestep	0.0005

neigh_modify    delay 7 every 1

include		in.deepmd
# This is deepMD model

# create groups ###
#group ox type 2
#group hy type 1

#mass            2 15.9994
#mass            1 1.007840

pair_style      deepmd ../../graph.pb
Summary of lammps deepmd module ...
  >>> Info of deepmd-kit:
  installed to:       /home/sbore/software/miniconda3/envs/deepmd2.1.1
  source:             v2.1.1
  source branch:       HEAD
  source commit:      c4f0cec0
  source commit at:   2022-04-16 11:11:16 +0800
  surpport model ver.:1.1
  build float prec:   double
  build with tf inc:  /home/sbore/software/miniconda3/envs/deepmd2.1.1/include;/home/sbore/software/miniconda3/envs/deepmd2.1.1/include
  build with tf lib:  /home/sbore/software/miniconda3/envs/deepmd2.1.1/lib/libtensorflow_cc.so;/home/sbore/software/miniconda3/envs/deepmd2.1.1/lib/libtensorflow_framework.so
  set tf intra_op_parallelism_threads: 2
  set tf inter_op_parallelism_threads: 2
  >>> Info of lammps module:
  use deepmd-kit at:  /home/sbore/software/miniconda3/envs/deepmd2.1.12022-05-22 00:43:17.154584: I tensorflow/core/platform/cpu_feature_guard.cc:151] This TensorFlow binary is optimized with oneAPI Deep Neural Network Library (oneDNN) to use the following CPU instructions in performance-critical operations:  SSE4.1 SSE4.2 AVX AVX2 AVX512F FMA
To enable them in other operations, rebuild TensorFlow with the appropriate compiler flags.
2022-05-22 00:43:18.095410: I tensorflow/core/common_runtime/gpu/gpu_device.cc:1525] Created device /job:localhost/replica:0/task:0/device:GPU:0 with 5467 MB memory:  -> device: 0, name: NVIDIA GeForce GTX 1060 6GB, pci bus id: 0000:17:00.0, compute capability: 6.1
  >>> Info of model(s):
  rcut in model:      6
  ntypes in model:    2
pair_coeff      * *

bond_style      none
angle_style     none
dihedral_style  none
improper_style  none
neigh_modify exclude none

neighbor        2.0 bin
neigh_modify    every 10 delay 0 check no

thermo          500
thermo_style 	custom step temp pe etotal epair emol press lx ly lz vol pxx pyy pzz pxy pxz pyz cella cellb cellc cellalpha cellbeta cellgamma

thermo_modify   flush yes
restart 	500 restart.lmp.0 restart2.lmp.0

include         in.dump
dump            myDump all atom 500 configurations.lammpstrj
dump_modify     myDump append yes

include in.dump_rerun

###############################
# Dump data into output files #
###############################

# Dump forces every step
dump force all custom 500 force_ev.dat id fx fy fz
dump_modify force sort id append yes

# Dump energy every step
fix             energy all print 500 "$(step) $(pe)" append energy_ev.dat screen no title "#step pe/(ev)"

# Dump box every step
fix             box all print 500 "$(step) $(lx) 0.0 0.0 $(xy) $(ly) 0.0 $(xz) $(yz) $(lz)" append box.dat screen no title "#step lxx lxy lxz lyx lyz lzx lzy lzz"

#include in.dump_avg

timer           timeout 23:45:00 every 250
New timer settings: style=normal  mode=nosync  timeout=23:45:00

fix             2 all nph tri 0 0 1
fix             3 all temp/csvr 250 250 0.1 745823
velocity 	all create 250 745823 dist gaussian

run             199999 upto

CITE-CITE-CITE-CITE-CITE-CITE-CITE-CITE-CITE-CITE-CITE-CITE-CITE

Your simulation uses code contributions which should be cited:
- USER-DEEPMD package:
The log file lists these citations in BibTeX format.

CITE-CITE-CITE-CITE-CITE-CITE-CITE-CITE-CITE-CITE-CITE-CITE-CITE

  update every 10 steps, delay 0 steps, check no
Setting up Verlet run ...
  Unit style    : metal
  Current step  : 0
  Time step     : 0.0005
  Walltime left : 23:44:59.99
Step Temp PotEng TotEng E_pair E_mol Press Lx Ly Lz Volume Pxx Pyy Pzz Pxy Pxz Pyz Cella Cellb Cellc CellAlpha CellBeta CellGamma
0          250   -189.73635   -158.35845   -189.73635            0    32017.697        23.34    21.468634    16.394173    8214.7581    29427.801    30757.277    35868.014    1478.5692    1266.7251    3939.8025        23.34    23.340001    23.339999    113.10001    113.10001        113.1
Averages over the last 114 of 228 rows, steps 28500 to 199999:
Temp PotEng TotEng E_pair E_mol Press Lx Ly Lz Volume Pxx Pyy Pzz Pxy Pxz Pyz Cella Cellb Cellc CellAlpha CellBeta CellGamma
250.252 -162.278 -130.869 -162.278 0 -85.5231 23.5033 21.635 16.5757 8428.63 -245.054 -43.7369 32.2219 -98.763 197.929 221.109 23.5033 23.5066 18.9899 74.3555 74.4127 113.016
Loop time of 17596.7 on 4 procs for 199999 steps with 972 atoms

unfix		3
unfix		2

write_data	data.final.0
System init for write_data ...

write_restart   restart.lmp.0
System init for write_restart ...
Unloading pair style deepmd
Unloading compute style deeptensor/atom
Unloading fix style dplr
/home/sbore/projects/DeepMDPhaseDiagram/3-AnalyzePerformance/DensityPetrenko/DeePMD/Ice_III_0.28gpa_250K
LAMMPS (29 Sep 2021 - Update 3)
Loading plugin: deepmd pair style v2.0 by Han Wang
Loading plugin: compute deeptensor/atom v2.0 by Han Wang
Loading plugin: fix dplr v2.0 by Han Wang

include		in.partitions
variable        pid world 0
include		in.temp
variable	temperature equal 250
variable	tempDamp equal 0.100
include		in.pressure
variable        pressure equal 0.28
variable        pressureDamp equal 1.0000 # This is 1 ps
include		in.seed
variable        seed world 745823

units		metal
atom_style	full
include		in.box

read_data       water.data
Reading data file ...
  orthogonal box = (0.0000000 0.0000000 0.0000000) to (19.991053 19.991053 20.800772)
  reading atoms ...
  972 atoms
Finding 1-2 1-3 1-4 neighbors ...
     0 = max # of 1-2 neighbors
     0 = max # of 1-3 neighbors
     0 = max # of 1-4 neighbors
     1 = max # of special neighbors
include 	in.setup
variable	out_freq equal 500
variable	out_freq2 equal 500

timestep	0.0005

neigh_modify    delay 7 every 1

include		in.deepmd
# This is deepMD model

# create groups ###
#group ox type 2
#group hy type 1

#mass            2 15.9994
#mass            1 1.007840

pair_style      deepmd ../../graph.pb
Summary of lammps deepmd module ...
  >>> Info of deepmd-kit:
  installed to:       /home/sbore/software/miniconda3/envs/deepmd2.1.1
  source:             v2.1.1
  source branch:       HEAD
  source commit:      c4f0cec0
  source commit at:   2022-04-16 11:11:16 +0800
  surpport model ver.:1.1
  build float prec:   double
  build with tf inc:  /home/sbore/software/miniconda3/envs/deepmd2.1.1/include;/home/sbore/software/miniconda3/envs/deepmd2.1.1/include
  build with tf lib:  /home/sbore/software/miniconda3/envs/deepmd2.1.1/lib/libtensorflow_cc.so;/home/sbore/software/miniconda3/envs/deepmd2.1.1/lib/libtensorflow_framework.so
  set tf intra_op_parallelism_threads: 2
  set tf inter_op_parallelism_threads: 2
  >>> Info of lammps module:
  use deepmd-kit at:  /home/sbore/software/miniconda3/envs/deepmd2.1.12022-05-22 02:04:05.209493: I tensorflow/core/platform/cpu_feature_guard.cc:151] This TensorFlow binary is optimized with oneAPI Deep Neural Network Library (oneDNN) to use the following CPU instructions in performance-critical operations:  SSE4.1 SSE4.2 AVX AVX2 AVX512F FMA
To enable them in other operations, rebuild TensorFlow with the appropriate compiler flags.
2022-05-22 02:04:06.090066: I tensorflow/core/common_runtime/gpu/gpu_device.cc:1525] Created device /job:localhost/replica:0/task:0/device:GPU:0 with 5467 MB memory:  -> device: 0, name: NVIDIA GeForce GTX 1060 6GB, pci bus id: 0000:17:00.0, compute capability: 6.1
  >>> Info of model(s):
  rcut in model:      6
  ntypes in model:    2
pair_coeff      * *

bond_style      none
angle_style     none
dihedral_style  none
improper_style  none
neigh_modify exclude none

neighbor        2.0 bin
neigh_modify    every 10 delay 0 check no

thermo          500
thermo_style 	custom step temp pe etotal epair emol press lx ly lz vol pxx pyy pzz pxy pxz pyz cella cellb cellc cellalpha cellbeta cellgamma

thermo_modify   flush yes
restart 	500 restart.lmp.0 restart2.lmp.0

include         in.dump
dump            myDump all atom 500 configurations.lammpstrj
dump_modify     myDump append yes

include in.dump_rerun

###############################
# Dump data into output files #
###############################

# Dump forces every step
dump force all custom 500 force_ev.dat id fx fy fz
dump_modify force sort id append yes

# Dump energy every step
fix             energy all print 500 "$(step) $(pe)" append energy_ev.dat screen no title "#step pe/(ev)"

# Dump box every step
fix             box all print 500 "$(step) $(lx) 0.0 0.0 $(xy) $(ly) 0.0 $(xz) $(yz) $(lz)" append box.dat screen no title "#step lxx lxy lxz lyx lyz lzx lzy lzz"

#include in.dump_avg

timer           timeout 23:45:00 every 250
New timer settings: style=normal  mode=nosync  timeout=23:45:00

fix             2 all nph aniso 0.28 0.28 1
fix             3 all temp/csvr 250 250 0.1 745823
velocity 	all create 250 745823 dist gaussian

run             199999 upto

CITE-CITE-CITE-CITE-CITE-CITE-CITE-CITE-CITE-CITE-CITE-CITE-CITE

Your simulation uses code contributions which should be cited:
- USER-DEEPMD package:
The log file lists these citations in BibTeX format.

CITE-CITE-CITE-CITE-CITE-CITE-CITE-CITE-CITE-CITE-CITE-CITE-CITE

  update every 10 steps, delay 0 steps, check no
Setting up Verlet run ...
  Unit style    : metal
  Current step  : 0
  Time step     : 0.0005
  Walltime left : 23:44:59.99
Step Temp PotEng TotEng E_pair E_mol Press Lx Ly Lz Volume Pxx Pyy Pzz Pxy Pxz Pyz Cella Cellb Cellc CellAlpha CellBeta CellGamma
0          250   -177.88789   -146.50999   -177.88789            0    39163.916    19.991053    19.991053    20.800772    8312.8663    43111.294    42052.697    32327.756   -67.468179    -1418.335   -326.75895    19.991053    19.991053    20.800772           90           90           90
Averages over the last 287 of 573 rows, steps 128500 to 199999:
Temp PotEng TotEng E_pair E_mol Press Lx Ly Lz Volume Pxx Pyy Pzz Pxy Pxz Pyz Cella Cellb Cellc CellAlpha CellBeta CellGamma
249.368 -161.968 -130.67 -161.968 0 -82.0271 21.8986 20.9444 18.8791 8566.37 -224.565 68.679 -90.1952 -0.327904 -48.2592 17.6055 21.8986 21.885 20.0935 82.1646 82.1488 101.556
Loop time of 16886.9 on 4 procs for 199999 steps with 972 atoms

unfix		3
unfix		2

write_data	data.final.0
System init for write_data ...

write_restart   restart.lmp.0
System init for write_restart ...
Unloading pair style deepmd
Unloading compute style deeptensor/atom
Unloading fix style dplr
/home/sbore/projects/DeepMDPhaseDiagram/3-AnalyzePerformance/DensityPetrenko/DeePMD/Ice_III_0.28gpa_250K
LAMMPS (29 Sep 2021 - Update 3)
Loading plugin: deepmd pair style v2.0 by Han Wang
Loading plugin: compute deeptensor/atom v2.0 by Han Wang
Loading plugin: fix dplr v2.0 by Han Wang

include		in.partitions
variable        pid world 0
include		in.temp
variable	temperature equal 250
variable	tempDamp equal 0.100
include		in.pressure
variable        pressure equal 0.28
variable        pressureDamp equal 1.0000 # This is 1 ps
include		in.seed
variable        seed world 745823

units		metal
atom_style	full
include		in.box

read_data       water.data
Reading data file ...
  orthogonal box = (0.0000000 0.0000000 0.0000000) to (19.991053 19.991053 20.800772)
  reading atoms ...
  972 atoms
Finding 1-2 1-3 1-4 neighbors ...
     0 = max # of 1-2 neighbors
     0 = max # of 1-3 neighbors
     0 = max # of 1-4 neighbors
     1 = max # of special neighbors
include 	in.setup
variable	out_freq equal 500
variable	out_freq2 equal 500

timestep	0.0005

neigh_modify    delay 7 every 1

include		in.deepmd
# This is deepMD model

# create groups ###
#group ox type 2
#group hy type 1

#mass            2 15.9994
#mass            1 1.007840

pair_style      deepmd ../../graph.pb
Summary of lammps deepmd module ...
  >>> Info of deepmd-kit:
  installed to:       /home/sbore/software/miniconda3/envs/deepmd2.1.1
  source:             v2.1.1
  source branch:       HEAD
  source commit:      c4f0cec0
  source commit at:   2022-04-16 11:11:16 +0800
  surpport model ver.:1.1
  build float prec:   double
  build with tf inc:  /home/sbore/software/miniconda3/envs/deepmd2.1.1/include;/home/sbore/software/miniconda3/envs/deepmd2.1.1/include
  build with tf lib:  /home/sbore/software/miniconda3/envs/deepmd2.1.1/lib/libtensorflow_cc.so;/home/sbore/software/miniconda3/envs/deepmd2.1.1/lib/libtensorflow_framework.so
  set tf intra_op_parallelism_threads: 2
  set tf inter_op_parallelism_threads: 2
  >>> Info of lammps module:
  use deepmd-kit at:  /home/sbore/software/miniconda3/envs/deepmd2.1.12022-05-22 05:24:47.708808: I tensorflow/core/platform/cpu_feature_guard.cc:151] This TensorFlow binary is optimized with oneAPI Deep Neural Network Library (oneDNN) to use the following CPU instructions in performance-critical operations:  SSE4.1 SSE4.2 AVX AVX2 AVX512F FMA
To enable them in other operations, rebuild TensorFlow with the appropriate compiler flags.
2022-05-22 05:24:48.701270: I tensorflow/core/common_runtime/gpu/gpu_device.cc:1525] Created device /job:localhost/replica:0/task:0/device:GPU:0 with 5467 MB memory:  -> device: 0, name: NVIDIA GeForce GTX 1060 6GB, pci bus id: 0000:17:00.0, compute capability: 6.1
  >>> Info of model(s):
  rcut in model:      6
  ntypes in model:    2
pair_coeff      * *

bond_style      none
angle_style     none
dihedral_style  none
improper_style  none
neigh_modify exclude none

neighbor        2.0 bin
neigh_modify    every 10 delay 0 check no

thermo          500
thermo_style 	custom step temp pe etotal epair emol press lx ly lz vol pxx pyy pzz pxy pxz pyz cella cellb cellc cellalpha cellbeta cellgamma

thermo_modify   flush yes
restart 	500 restart.lmp.0 restart2.lmp.0

include         in.dump
dump            myDump all atom 500 configurations.lammpstrj
dump_modify     myDump append yes

include in.dump_rerun

###############################
# Dump data into output files #
###############################

# Dump forces every step
dump force all custom 500 force_ev.dat id fx fy fz
dump_modify force sort id append yes

# Dump energy every step
fix             energy all print 500 "$(step) $(pe)" append energy_ev.dat screen no title "#step pe/(ev)"

# Dump box every step
fix             box all print 500 "$(step) $(lx) 0.0 0.0 $(xy) $(ly) 0.0 $(xz) $(yz) $(lz)" append box.dat screen no title "#step lxx lxy lxz lyx lyz lzx lzy lzz"

#include in.dump_avg

timer           timeout 23:45:00 every 250
New timer settings: style=normal  mode=nosync  timeout=23:45:00

fix             2 all nph aniso 0.28 0.28 1
fix             3 all temp/csvr 250 250 0.1 745823
velocity 	all create 250 745823 dist gaussian

run             199999 upto

CITE-CITE-CITE-CITE-CITE-CITE-CITE-CITE-CITE-CITE-CITE-CITE-CITE

Your simulation uses code contributions which should be cited:
- USER-DEEPMD package:
The log file lists these citations in BibTeX format.

CITE-CITE-CITE-CITE-CITE-CITE-CITE-CITE-CITE-CITE-CITE-CITE-CITE

  update every 10 steps, delay 0 steps, check no
Setting up Verlet run ...
  Unit style    : metal
  Current step  : 0
  Time step     : 0.0005
  Walltime left : 23:44:59.99
Step Temp PotEng TotEng E_pair E_mol Press Lx Ly Lz Volume Pxx Pyy Pzz Pxy Pxz Pyz Cella Cellb Cellc CellAlpha CellBeta CellGamma
0          250   -177.88789   -146.50999   -177.88789            0    39163.916    19.991053    19.991053    20.800772    8312.8663    43111.294    42052.697    32327.756   -67.468179    -1418.335   -326.75895    19.991053    19.991053    20.800772           90           90           90
Averages over the last 114 of 228 rows, steps 28500 to 199999:
Temp PotEng TotEng E_pair E_mol Press Lx Ly Lz Volume Pxx Pyy Pzz Pxy Pxz Pyz Cella Cellb Cellc CellAlpha CellBeta CellGamma
250.896 -161.151 -129.661 -161.151 0 45.8608 20.2783 20.2632 21.2257 8721.45 150.218 191.632 -204.268 -209.758 26.1975 -109.868 20.2783 20.2632 21.2257 90 90 90
Loop time of 16782.2 on 4 procs for 199999 steps with 972 atoms

unfix		3
unfix		2

write_data	data.final.0
System init for write_data ...

write_restart   restart.lmp.0
System init for write_restart ...
Unloading pair style deepmd
Unloading compute style deeptensor/atom
Unloading fix style dplr
/home/sbore/projects/DeepMDPhaseDiagram/3-AnalyzePerformance/DensityPetrenko/DeePMD/Ice_IV_0.0gpa_110K
LAMMPS (29 Sep 2021 - Update 3)
Loading plugin: deepmd pair style v2.0 by Han Wang
Loading plugin: compute deeptensor/atom v2.0 by Han Wang
Loading plugin: fix dplr v2.0 by Han Wang

include		in.partitions
variable        pid world 0
include		in.temp
variable	temperature equal 110
variable	tempDamp equal 0.100
include		in.pressure
variable        pressure equal 0.0
variable        pressureDamp equal 1.0000 # This is 1 ps
include		in.seed
variable        seed world 745823

units		metal
atom_style	full
include		in.box
box tilt large
read_data       water.data
Reading data file ...
  triclinic box = (0.0000000 0.0000000 0.0000000) to (30.140194 28.340464 27.411446) with tilt (10.259106 10.259107 7.1968540)
  reading atoms ...
  3072 atoms
Finding 1-2 1-3 1-4 neighbors ...
     0 = max # of 1-2 neighbors
     0 = max # of 1-3 neighbors
     0 = max # of 1-4 neighbors
     1 = max # of special neighbors
include 	in.setup
variable	out_freq equal 500
variable	out_freq2 equal 500

timestep	0.0005

neigh_modify    delay 7 every 1

include		in.deepmd
# This is deepMD model

# create groups ###
#group ox type 2
#group hy type 1

#mass            2 15.9994
#mass            1 1.007840

pair_style      deepmd ../../graph.pb
Summary of lammps deepmd module ...
  >>> Info of deepmd-kit:
  installed to:       /home/sbore/software/miniconda3/envs/deepmd2.1.1
  source:             v2.1.1
  source branch:       HEAD
  source commit:      c4f0cec0
  source commit at:   2022-04-16 11:11:16 +0800
  surpport model ver.:1.1
  build float prec:   double
  build with tf inc:  /home/sbore/software/miniconda3/envs/deepmd2.1.1/include;/home/sbore/software/miniconda3/envs/deepmd2.1.1/include
  build with tf lib:  /home/sbore/software/miniconda3/envs/deepmd2.1.1/lib/libtensorflow_cc.so;/home/sbore/software/miniconda3/envs/deepmd2.1.1/lib/libtensorflow_framework.so
  set tf intra_op_parallelism_threads: 2
  set tf inter_op_parallelism_threads: 2
  >>> Info of lammps module:
  use deepmd-kit at:  /home/sbore/software/miniconda3/envs/deepmd2.1.12022-05-22 06:43:50.925999: I tensorflow/core/platform/cpu_feature_guard.cc:151] This TensorFlow binary is optimized with oneAPI Deep Neural Network Library (oneDNN) to use the following CPU instructions in performance-critical operations:  SSE4.1 SSE4.2 AVX AVX2 AVX512F FMA
To enable them in other operations, rebuild TensorFlow with the appropriate compiler flags.
2022-05-22 06:43:51.876414: I tensorflow/core/common_runtime/gpu/gpu_device.cc:1525] Created device /job:localhost/replica:0/task:0/device:GPU:0 with 5467 MB memory:  -> device: 0, name: NVIDIA GeForce GTX 1060 6GB, pci bus id: 0000:17:00.0, compute capability: 6.1
  >>> Info of model(s):
  rcut in model:      6
  ntypes in model:    2
pair_coeff      * *

bond_style      none
angle_style     none
dihedral_style  none
improper_style  none
neigh_modify exclude none

neighbor        2.0 bin
neigh_modify    every 10 delay 0 check no

thermo          500
thermo_style 	custom step temp pe etotal epair emol press lx ly lz vol pxx pyy pzz pxy pxz pyz cella cellb cellc cellalpha cellbeta cellgamma

thermo_modify   flush yes
restart 	500 restart.lmp.0 restart2.lmp.0

include         in.dump
dump            myDump all atom 500 configurations.lammpstrj
dump_modify     myDump append yes

include in.dump_rerun

###############################
# Dump data into output files #
###############################

# Dump forces every step
dump force all custom 500 force_ev.dat id fx fy fz
dump_modify force sort id append yes

# Dump energy every step
fix             energy all print 500 "$(step) $(pe)" append energy_ev.dat screen no title "#step pe/(ev)"

# Dump box every step
fix             box all print 500 "$(step) $(lx) 0.0 0.0 $(xy) $(ly) 0.0 $(xz) $(yz) $(lz)" append box.dat screen no title "#step lxx lxy lxz lyx lyz lzx lzy lzz"

#include in.dump_avg

timer           timeout 23:45:00 every 250
New timer settings: style=normal  mode=nosync  timeout=23:45:00

fix             2 all nph tri 0 0 1
fix             3 all temp/csvr 110 110 0.1 745823
velocity 	all create 110 745823 dist gaussian

run             199999 upto

CITE-CITE-CITE-CITE-CITE-CITE-CITE-CITE-CITE-CITE-CITE-CITE-CITE

Your simulation uses code contributions which should be cited:
- USER-DEEPMD package:
The log file lists these citations in BibTeX format.

CITE-CITE-CITE-CITE-CITE-CITE-CITE-CITE-CITE-CITE-CITE-CITE-CITE

  update every 10 steps, delay 0 steps, check no
Setting up Verlet run ...
  Unit style    : metal
  Current step  : 0
  Time step     : 0.0005
  Walltime left : 23:44:59.99
Step Temp PotEng TotEng E_pair E_mol Press Lx Ly Lz Volume Pxx Pyy Pzz Pxy Pxz Pyz Cella Cellb Cellc CellAlpha CellBeta CellGamma
0          110   -568.78237     -525.117   -568.78237            0    37602.986    30.140194    28.340464    27.411446    23414.503    37759.438    37413.278    37636.243   -60.614282    352.80223   -89.460283    30.140194    30.140192    30.140195    70.099998    70.099998    70.099998
Averages over the last 37 of 73 rows, steps 5500 to 81500:
Temp PotEng TotEng E_pair E_mol Press Lx Ly Lz Volume Pxx Pyy Pzz Pxy Pxz Pyz Cella Cellb Cellc CellAlpha CellBeta CellGamma
204.709 -291.82 -256.397 -291.82 0 85.2093 23.4965 22.901 23.2668 13562.1 160.867 36.6258 58.1346 -27.4848 -134.973 289.422 23.4965 23.4658 24.1213 83.7058 83.6581 83.6554
DeePMD/Ice_III_0.28gpa_250K/: line 1: 18283 Terminated              ~/software/miniconda3/envs/deepmd2.1.1/bin/lmp -in start.lmp
/home/sbore/projects/DeepMDPhaseDiagram/3-AnalyzePerformance/DensityPetrenko/DeePMD/Ice_IV_0.0gpa_110K
LAMMPS (29 Sep 2021 - Update 3)
Loading plugin: deepmd pair style v2.0 by Han Wang
Loading plugin: compute deeptensor/atom v2.0 by Han Wang
Loading plugin: fix dplr v2.0 by Han Wang

include		in.partitions
variable        pid world 0
include		in.temp
variable	temperature equal 110
variable	tempDamp equal 0.100
include		in.pressure
variable        pressure equal 0.0
variable        pressureDamp equal 1.0000 # This is 1 ps
include		in.seed
variable        seed world 745823

units		metal
atom_style	full
include		in.box
box tilt large
read_data       water.data
Reading data file ...
  triclinic box = (0.0000000 0.0000000 0.0000000) to (30.140194 28.340464 27.411446) with tilt (10.259106 10.259107 7.1968540)
  reading atoms ...
  3072 atoms
Finding 1-2 1-3 1-4 neighbors ...
     0 = max # of 1-2 neighbors
     0 = max # of 1-3 neighbors
     0 = max # of 1-4 neighbors
     1 = max # of special neighbors
include 	in.setup
variable	out_freq equal 500
variable	out_freq2 equal 500

timestep	0.0005

neigh_modify    delay 7 every 1

include		in.deepmd
# This is deepMD model

# create groups ###
#group ox type 2
#group hy type 1

#mass            2 15.9994
#mass            1 1.007840

pair_style      deepmd ../../graph.pb
Summary of lammps deepmd module ...
  >>> Info of deepmd-kit:
  installed to:       /home/sbore/software/miniconda3/envs/deepmd2.1.1
  source:             v2.1.1
  source branch:       HEAD
  source commit:      c4f0cec0
  source commit at:   2022-04-16 11:11:16 +0800
  surpport model ver.:1.1
  build float prec:   double
  build with tf inc:  /home/sbore/software/miniconda3/envs/deepmd2.1.1/include;/home/sbore/software/miniconda3/envs/deepmd2.1.1/include
  build with tf lib:  /home/sbore/software/miniconda3/envs/deepmd2.1.1/lib/libtensorflow_cc.so;/home/sbore/software/miniconda3/envs/deepmd2.1.1/lib/libtensorflow_framework.so
  set tf intra_op_parallelism_threads: 2
  set tf inter_op_parallelism_threads: 2
  >>> Info of lammps module:
  use deepmd-kit at:  /home/sbore/software/miniconda3/envs/deepmd2.1.12022-05-22 07:25:43.804914: I tensorflow/core/platform/cpu_feature_guard.cc:151] This TensorFlow binary is optimized with oneAPI Deep Neural Network Library (oneDNN) to use the following CPU instructions in performance-critical operations:  SSE4.1 SSE4.2 AVX AVX2 AVX512F FMA
To enable them in other operations, rebuild TensorFlow with the appropriate compiler flags.
2022-05-22 07:25:44.892978: I tensorflow/core/common_runtime/gpu/gpu_device.cc:1525] Created device /job:localhost/replica:0/task:0/device:GPU:0 with 5467 MB memory:  -> device: 0, name: NVIDIA GeForce GTX 1060 6GB, pci bus id: 0000:17:00.0, compute capability: 6.1
  >>> Info of model(s):
  rcut in model:      6
  ntypes in model:    2
pair_coeff      * *

bond_style      none
angle_style     none
dihedral_style  none
improper_style  none
neigh_modify exclude none

neighbor        2.0 bin
neigh_modify    every 10 delay 0 check no

thermo          500
thermo_style 	custom step temp pe etotal epair emol press lx ly lz vol pxx pyy pzz pxy pxz pyz cella cellb cellc cellalpha cellbeta cellgamma

thermo_modify   flush yes
restart 	500 restart.lmp.0 restart2.lmp.0

include         in.dump
dump            myDump all atom 500 configurations.lammpstrj
dump_modify     myDump append yes

include in.dump_rerun

###############################
# Dump data into output files #
###############################

# Dump forces every step
dump force all custom 500 force_ev.dat id fx fy fz
dump_modify force sort id append yes

# Dump energy every step
fix             energy all print 500 "$(step) $(pe)" append energy_ev.dat screen no title "#step pe/(ev)"

# Dump box every step
fix             box all print 500 "$(step) $(lx) 0.0 0.0 $(xy) $(ly) 0.0 $(xz) $(yz) $(lz)" append box.dat screen no title "#step lxx lxy lxz lyx lyz lzx lzy lzz"

#include in.dump_avg

timer           timeout 23:45:00 every 250
New timer settings: style=normal  mode=nosync  timeout=23:45:00

fix             2 all nph tri 0 0 1
fix             3 all temp/csvr 110 110 0.1 745823
velocity 	all create 110 745823 dist gaussian

run             199999 upto

CITE-CITE-CITE-CITE-CITE-CITE-CITE-CITE-CITE-CITE-CITE-CITE-CITE

Your simulation uses code contributions which should be cited:
- USER-DEEPMD package:
The log file lists these citations in BibTeX format.

CITE-CITE-CITE-CITE-CITE-CITE-CITE-CITE-CITE-CITE-CITE-CITE-CITE

  update every 10 steps, delay 0 steps, check no
Setting up Verlet run ...
  Unit style    : metal
  Current step  : 0
  Time step     : 0.0005
  Walltime left : 23:44:59.99
Step Temp PotEng TotEng E_pair E_mol Press Lx Ly Lz Volume Pxx Pyy Pzz Pxy Pxz Pyz Cella Cellb Cellc CellAlpha CellBeta CellGamma
0          110   -568.78237     -525.117   -568.78237            0    37602.986    30.140194    28.340464    27.411446    23414.503    37759.438    37413.278    37636.243   -60.614282    352.80223   -89.460283    30.140194    30.140192    30.140195    70.099998    70.099998    70.099998
DeePMD/Ice_IV_0.0gpa_110K/: line 1: 25716 Terminated              ~/software/miniconda3/envs/deepmd2.1.1/bin/lmp -in start.lmp
/home/sbore/projects/DeepMDPhaseDiagram/3-AnalyzePerformance/DensityPetrenko/DeePMD/Ice_IV_0.5gpa_260K
LAMMPS (29 Sep 2021 - Update 3)
Loading plugin: deepmd pair style v2.0 by Han Wang
Loading plugin: compute deeptensor/atom v2.0 by Han Wang
Loading plugin: fix dplr v2.0 by Han Wang

include		in.partitions
variable        pid world 0
include		in.temp
variable	temperature equal 260
variable	tempDamp equal 0.100
include		in.pressure
variable        pressure equal 0.5
variable        pressureDamp equal 1.0000 # This is 1 ps
include		in.seed
variable        seed world 745823

units		metal
atom_style	full
include		in.box
box tilt large
read_data       water.data
Reading data file ...
  triclinic box = (0.0000000 0.0000000 0.0000000) to (30.140194 28.340464 27.411446) with tilt (10.259106 10.259107 7.1968540)
  reading atoms ...
  3072 atoms
Finding 1-2 1-3 1-4 neighbors ...
     0 = max # of 1-2 neighbors
     0 = max # of 1-3 neighbors
     0 = max # of 1-4 neighbors
     1 = max # of special neighbors
include 	in.setup
variable	out_freq equal 500
variable	out_freq2 equal 500

timestep	0.0005

neigh_modify    delay 7 every 1

include		in.deepmd
# This is deepMD model

# create groups ###
#group ox type 2
#group hy type 1

#mass            2 15.9994
#mass            1 1.007840

pair_style      deepmd ../../graph.pb
Summary of lammps deepmd module ...
  >>> Info of deepmd-kit:
  installed to:       /home/sbore/software/miniconda3/envs/deepmd2.1.1
  source:             v2.1.1
  source branch:       HEAD
  source commit:      c4f0cec0
  source commit at:   2022-04-16 11:11:16 +0800
  surpport model ver.:1.1
  build float prec:   double
  build with tf inc:  /home/sbore/software/miniconda3/envs/deepmd2.1.1/include;/home/sbore/software/miniconda3/envs/deepmd2.1.1/include
  build with tf lib:  /home/sbore/software/miniconda3/envs/deepmd2.1.1/lib/libtensorflow_cc.so;/home/sbore/software/miniconda3/envs/deepmd2.1.1/lib/libtensorflow_framework.so
  set tf intra_op_parallelism_threads: 2
  set tf inter_op_parallelism_threads: 2
  >>> Info of lammps module:
  use deepmd-kit at:  /home/sbore/software/miniconda3/envs/deepmd2.1.12022-05-22 07:26:14.774122: I tensorflow/core/platform/cpu_feature_guard.cc:151] This TensorFlow binary is optimized with oneAPI Deep Neural Network Library (oneDNN) to use the following CPU instructions in performance-critical operations:  SSE4.1 SSE4.2 AVX AVX2 AVX512F FMA
To enable them in other operations, rebuild TensorFlow with the appropriate compiler flags.
2022-05-22 07:26:15.801145: I tensorflow/core/common_runtime/gpu/gpu_device.cc:1525] Created device /job:localhost/replica:0/task:0/device:GPU:0 with 5467 MB memory:  -> device: 0, name: NVIDIA GeForce GTX 1060 6GB, pci bus id: 0000:17:00.0, compute capability: 6.1
  >>> Info of model(s):
  rcut in model:      6
  ntypes in model:    2
pair_coeff      * *

bond_style      none
angle_style     none
dihedral_style  none
improper_style  none
neigh_modify exclude none

neighbor        2.0 bin
neigh_modify    every 10 delay 0 check no

thermo          500
thermo_style 	custom step temp pe etotal epair emol press lx ly lz vol pxx pyy pzz pxy pxz pyz cella cellb cellc cellalpha cellbeta cellgamma

thermo_modify   flush yes
restart 	500 restart.lmp.0 restart2.lmp.0

include         in.dump
dump            myDump all atom 500 configurations.lammpstrj
dump_modify     myDump append yes

include in.dump_rerun

###############################
# Dump data into output files #
###############################

# Dump forces every step
dump force all custom 500 force_ev.dat id fx fy fz
dump_modify force sort id append yes

# Dump energy every step
fix             energy all print 500 "$(step) $(pe)" append energy_ev.dat screen no title "#step pe/(ev)"

# Dump box every step
fix             box all print 500 "$(step) $(lx) 0.0 0.0 $(xy) $(ly) 0.0 $(xz) $(yz) $(lz)" append box.dat screen no title "#step lxx lxy lxz lyx lyz lzx lzy lzz"

#include in.dump_avg

timer           timeout 23:45:00 every 250
New timer settings: style=normal  mode=nosync  timeout=23:45:00

fix             2 all nph tri 0.5 0.5 1
fix             3 all temp/csvr 260 260 0.1 745823
velocity 	all create 260 745823 dist gaussian

run             199999 upto

CITE-CITE-CITE-CITE-CITE-CITE-CITE-CITE-CITE-CITE-CITE-CITE-CITE

Your simulation uses code contributions which should be cited:
- USER-DEEPMD package:
The log file lists these citations in BibTeX format.

CITE-CITE-CITE-CITE-CITE-CITE-CITE-CITE-CITE-CITE-CITE-CITE-CITE

  update every 10 steps, delay 0 steps, check no
Setting up Verlet run ...
  Unit style    : metal
  Current step  : 0
  Time step     : 0.0005
  Walltime left : 23:44:59.99
Step Temp PotEng TotEng E_pair E_mol Press Lx Ly Lz Volume Pxx Pyy Pzz Pxy Pxz Pyz Cella Cellb Cellc CellAlpha CellBeta CellGamma
0          260   -568.78237   -465.57332   -568.78237            0    40319.237    30.140194    28.340464    27.411446    23414.503    40422.039    40216.176    40319.497   -35.119375     365.4621   -58.130793    30.140194    30.140192    30.140195    70.099998    70.099998    70.099998
xargs: bash: terminated by signal 15
Loop time of 51732.6 on 4 procs for 199999 steps with 3072 atoms

unfix		3
unfix		2

write_data	data.final.0
System init for write_data ...

write_restart   restart.lmp.0
System init for write_restart ...
Unloading pair style deepmd
Unloading compute style deeptensor/atom
Unloading fix style dplr
/home/sbore/projects/DeepMDPhaseDiagram/3-AnalyzePerformance/DensityPetrenko/DeePMD/Ice_IX_0.28gpa_165K
LAMMPS (29 Sep 2021 - Update 3)
Loading plugin: deepmd pair style v2.0 by Han Wang
Loading plugin: compute deeptensor/atom v2.0 by Han Wang
Loading plugin: fix dplr v2.0 by Han Wang

include		in.partitions
variable        pid world 0
include		in.temp
variable	temperature equal 165
variable	tempDamp equal 0.100
include		in.pressure
variable        pressure equal 0.28
variable        pressureDamp equal 1.0000 # This is 1 ps
include		in.seed
variable        seed world 745823

units		metal
atom_style	full
include		in.box

read_data       water.data
Reading data file ...
  orthogonal box = (0.0000000 0.0000000 0.0000000) to (20.010004 20.010004 20.910006)
  reading atoms ...
  972 atoms
Finding 1-2 1-3 1-4 neighbors ...
     0 = max # of 1-2 neighbors
     0 = max # of 1-3 neighbors
     0 = max # of 1-4 neighbors
     1 = max # of special neighbors
include 	in.setup
variable	out_freq equal 500
variable	out_freq2 equal 500

timestep	0.0005

neigh_modify    delay 7 every 1

include		in.deepmd
# This is deepMD model

# create groups ###
#group ox type 2
#group hy type 1

#mass            2 15.9994
#mass            1 1.007840

pair_style      deepmd ../../graph.pb
Summary of lammps deepmd module ...
  >>> Info of deepmd-kit:
  installed to:       /home/sbore/software/miniconda3/envs/deepmd2.1.1
  source:             v2.1.1
  source branch:       HEAD
  source commit:      c4f0cec0
  source commit at:   2022-04-16 11:11:16 +0800
  surpport model ver.:1.1
  build float prec:   double
  build with tf inc:  /home/sbore/software/miniconda3/envs/deepmd2.1.1/include;/home/sbore/software/miniconda3/envs/deepmd2.1.1/include
  build with tf lib:  /home/sbore/software/miniconda3/envs/deepmd2.1.1/lib/libtensorflow_cc.so;/home/sbore/software/miniconda3/envs/deepmd2.1.1/lib/libtensorflow_framework.so
  set tf intra_op_parallelism_threads: 2
  set tf inter_op_parallelism_threads: 2
  >>> Info of lammps module:
  use deepmd-kit at:  /home/sbore/software/miniconda3/envs/deepmd2.1.12022-05-22 21:48:31.617542: I tensorflow/core/platform/cpu_feature_guard.cc:151] This TensorFlow binary is optimized with oneAPI Deep Neural Network Library (oneDNN) to use the following CPU instructions in performance-critical operations:  SSE4.1 SSE4.2 AVX AVX2 AVX512F FMA
To enable them in other operations, rebuild TensorFlow with the appropriate compiler flags.
2022-05-22 21:48:32.628028: I tensorflow/core/common_runtime/gpu/gpu_device.cc:1525] Created device /job:localhost/replica:0/task:0/device:GPU:0 with 5467 MB memory:  -> device: 0, name: NVIDIA GeForce GTX 1060 6GB, pci bus id: 0000:17:00.0, compute capability: 6.1
  >>> Info of model(s):
  rcut in model:      6
  ntypes in model:    2
pair_coeff      * *

bond_style      none
angle_style     none
dihedral_style  none
improper_style  none
neigh_modify exclude none

neighbor        2.0 bin
neigh_modify    every 10 delay 0 check no

thermo          500
thermo_style 	custom step temp pe etotal epair emol press lx ly lz vol pxx pyy pzz pxy pxz pyz cella cellb cellc cellalpha cellbeta cellgamma

thermo_modify   flush yes
restart 	500 restart.lmp.0 restart2.lmp.0

include         in.dump
dump            myDump all atom 500 configurations.lammpstrj
dump_modify     myDump append yes

include in.dump_rerun

###############################
# Dump data into output files #
###############################

# Dump forces every step
dump force all custom 500 force_ev.dat id fx fy fz
dump_modify force sort id append yes

# Dump energy every step
fix             energy all print 500 "$(step) $(pe)" append energy_ev.dat screen no title "#step pe/(ev)"

# Dump box every step
fix             box all print 500 "$(step) $(lx) 0.0 0.0 $(xy) $(ly) 0.0 $(xz) $(yz) $(lz)" append box.dat screen no title "#step lxx lxy lxz lyx lyz lzx lzy lzz"

#include in.dump_avg

timer           timeout 23:45:00 every 250
New timer settings: style=normal  mode=nosync  timeout=23:45:00

fix             2 all nph aniso 0.28 0.28 1
fix             3 all temp/csvr 165 165 0.1 745823
velocity 	all create 165 745823 dist gaussian

run             199999 upto

CITE-CITE-CITE-CITE-CITE-CITE-CITE-CITE-CITE-CITE-CITE-CITE-CITE

Your simulation uses code contributions which should be cited:
- USER-DEEPMD package:
The log file lists these citations in BibTeX format.

CITE-CITE-CITE-CITE-CITE-CITE-CITE-CITE-CITE-CITE-CITE-CITE-CITE

  update every 10 steps, delay 0 steps, check no
Setting up Verlet run ...
  Unit style    : metal
  Current step  : 0
  Time step     : 0.0005
  Walltime left : 23:44:59.99
Step Temp PotEng TotEng E_pair E_mol Press Lx Ly Lz Volume Pxx Pyy Pzz Pxy Pxz Pyz Cella Cellb Cellc CellAlpha CellBeta CellGamma
0          165   -178.75939   -158.04998   -178.75939            0    35162.425    20.010004    20.010004    20.910006    8372.3718    41884.274     41468.72    22134.282     2443.948   -245.97303    1407.3758    20.010004    20.010004    20.910006           90           90           90
Averages over the last 23 of 45 rows, steps 7500 to 199999:
Temp PotEng TotEng E_pair E_mol Press Lx Ly Lz Volume Pxx Pyy Pzz Pxy Pxz Pyz Cella Cellb Cellc CellAlpha CellBeta CellGamma
148.261 -293.042 -265.33 -293.042 0 433.779 23.3607 22.8244 22.6946 13152.9 117.79 582.063 601.484 98.1846 -463.284 51.2472 23.3607 23.3567 23.4975 84.0941 84.0419 84.0388
Loop time of 53323.8 on 4 procs for 199999 steps with 3072 atoms

unfix		3
unfix		2

write_data	data.final.0
System init for write_data ...

write_restart   restart.lmp.0
System init for write_restart ...
Unloading pair style deepmd
Unloading compute style deeptensor/atom
Unloading fix style dplr
Loop time of 9414.76 on 4 procs for 199999 steps with 972 atoms

unfix		3
unfix		2

write_data	data.final.0
System init for write_data ...

write_restart   restart.lmp.0
System init for write_restart ...
Unloading pair style deepmd
Unloading compute style deeptensor/atom
Unloading fix style dplr
/home/sbore/projects/DeepMDPhaseDiagram/3-AnalyzePerformance/DensityPetrenko/DeePMD/Ice_V_0.0gpa_98K
LAMMPS (29 Sep 2021 - Update 3)
Loading plugin: deepmd pair style v2.0 by Han Wang
Loading plugin: compute deeptensor/atom v2.0 by Han Wang
Loading plugin: fix dplr v2.0 by Han Wang

include		in.partitions
variable        pid world 0
include		in.temp
variable	temperature equal 98
variable	tempDamp equal 0.100
include		in.pressure
variable        pressure equal 0.0
variable        pressureDamp equal 1.0000 # This is 1 ps
include		in.seed
variable        seed world 745823

units		metal
atom_style	full
include		in.box
box tilt large
read_data       water.data
Reading data file ...
  triclinic box = (0.0000000 0.0000000 0.0000000) to (27.599335 22.570389 29.258575) with tilt (0.0000000 -10.188912 0.0000000)
  reading atoms ...
  2268 atoms
Finding 1-2 1-3 1-4 neighbors ...
     0 = max # of 1-2 neighbors
     0 = max # of 1-3 neighbors
     0 = max # of 1-4 neighbors
     1 = max # of special neighbors
include 	in.setup
variable	out_freq equal 500
variable	out_freq2 equal 500

timestep	0.0005

neigh_modify    delay 7 every 1

include		in.deepmd
# This is deepMD model

# create groups ###
#group ox type 2
#group hy type 1

#mass            2 15.9994
#mass            1 1.007840

pair_style      deepmd ../../graph.pb
Summary of lammps deepmd module ...
  >>> Info of deepmd-kit:
  installed to:       /home/sbore/software/miniconda3/envs/deepmd2.1.1
  source:             v2.1.1
  source branch:       HEAD
  source commit:      c4f0cec0
  source commit at:   2022-04-16 11:11:16 +0800
  surpport model ver.:1.1
  build float prec:   double
  build with tf inc:  /home/sbore/software/miniconda3/envs/deepmd2.1.1/include;/home/sbore/software/miniconda3/envs/deepmd2.1.1/include
  build with tf lib:  /home/sbore/software/miniconda3/envs/deepmd2.1.1/lib/libtensorflow_cc.so;/home/sbore/software/miniconda3/envs/deepmd2.1.1/lib/libtensorflow_framework.so
  set tf intra_op_parallelism_threads: 2
  set tf inter_op_parallelism_threads: 2
  >>> Info of lammps module:
  use deepmd-kit at:  /home/sbore/software/miniconda3/envs/deepmd2.1.12022-05-23 00:25:30.353974: I tensorflow/core/platform/cpu_feature_guard.cc:151] This TensorFlow binary is optimized with oneAPI Deep Neural Network Library (oneDNN) to use the following CPU instructions in performance-critical operations:  SSE4.1 SSE4.2 AVX AVX2 AVX512F FMA
To enable them in other operations, rebuild TensorFlow with the appropriate compiler flags.
2022-05-23 00:25:30.939968: I tensorflow/core/common_runtime/gpu/gpu_device.cc:1525] Created device /job:localhost/replica:0/task:0/device:GPU:0 with 5467 MB memory:  -> device: 0, name: NVIDIA GeForce GTX 1060 6GB, pci bus id: 0000:17:00.0, compute capability: 6.1
  >>> Info of model(s):
  rcut in model:      6
  ntypes in model:    2
pair_coeff      * *

bond_style      none
angle_style     none
dihedral_style  none
improper_style  none
neigh_modify exclude none

neighbor        2.0 bin
neigh_modify    every 10 delay 0 check no

thermo          500
thermo_style 	custom step temp pe etotal epair emol press lx ly lz vol pxx pyy pzz pxy pxz pyz cella cellb cellc cellalpha cellbeta cellgamma

thermo_modify   flush yes
restart 	500 restart.lmp.0 restart2.lmp.0

include         in.dump
dump            myDump all atom 500 configurations.lammpstrj
dump_modify     myDump append yes

include in.dump_rerun

###############################
# Dump data into output files #
###############################

# Dump forces every step
dump force all custom 500 force_ev.dat id fx fy fz
dump_modify force sort id append yes

# Dump energy every step
fix             energy all print 500 "$(step) $(pe)" append energy_ev.dat screen no title "#step pe/(ev)"

# Dump box every step
fix             box all print 500 "$(step) $(lx) 0.0 0.0 $(xy) $(ly) 0.0 $(xz) $(yz) $(lz)" append box.dat screen no title "#step lxx lxy lxz lyx lyz lzx lzy lzz"

#include in.dump_avg

timer           timeout 23:45:00 every 250
New timer settings: style=normal  mode=nosync  timeout=23:45:00

fix             2 all nph tri 0 0 1
fix             3 all temp/csvr 98 98 0.1 745823
velocity 	all create 98 745823 dist gaussian

run             199999 upto

CITE-CITE-CITE-CITE-CITE-CITE-CITE-CITE-CITE-CITE-CITE-CITE-CITE

Your simulation uses code contributions which should be cited:
- USER-DEEPMD package:
The log file lists these citations in BibTeX format.

CITE-CITE-CITE-CITE-CITE-CITE-CITE-CITE-CITE-CITE-CITE-CITE-CITE

  update every 10 steps, delay 0 steps, check no
Setting up Verlet run ...
  Unit style    : metal
  Current step  : 0
  Time step     : 0.0005
  Walltime left : 23:44:59.99
Step Temp PotEng TotEng E_pair E_mol Press Lx Ly Lz Volume Pxx Pyy Pzz Pxy Pxz Pyz Cella Cellb Cellc CellAlpha CellBeta CellGamma
0           98   -402.38073   -373.66352   -402.38073            0    34611.377    27.599335    22.570389    29.258575    18225.978    34911.474    35380.214    33542.442    378.30436    403.27789    39.862755    27.599335    22.570389      30.9819           90        109.2           90
Averages over the last 201 of 401 rows, steps 100000 to 199999:
Temp PotEng TotEng E_pair E_mol Press Lx Ly Lz Volume Pxx Pyy Pzz Pxy Pxz Pyz Cella Cellb Cellc CellAlpha CellBeta CellGamma
98.0185 -419.426 -390.704 -419.426 0 29.9951 27.2606 22.7101 28.9864 17945 -58.4059 18.3079 130.083 45.8354 -35.8857 9.48493 27.2606 22.7102 30.9281 89.9768 110.408 89.9382
Loop time of 19886.5 on 4 procs for 199999 steps with 2268 atoms

unfix		3
unfix		2

write_data	data.final.0
System init for write_data ...

write_restart   restart.lmp.0
System init for write_restart ...
Unloading pair style deepmd
Unloading compute style deeptensor/atom
Unloading fix style dplr
/home/sbore/projects/DeepMDPhaseDiagram/3-AnalyzePerformance/DensityPetrenko/DeePMD/Ice_V_0.53gpa_223K
LAMMPS (29 Sep 2021 - Update 3)
Loading plugin: deepmd pair style v2.0 by Han Wang
Loading plugin: compute deeptensor/atom v2.0 by Han Wang
Loading plugin: fix dplr v2.0 by Han Wang

include		in.partitions
variable        pid world 0
include		in.temp
variable	temperature equal 223
variable	tempDamp equal 0.100
include		in.pressure
variable        pressure equal 0.53
variable        pressureDamp equal 1.0000 # This is 1 ps
include		in.seed
variable        seed world 745823

units		metal
atom_style	full
include		in.box
box tilt large
read_data       water.data
Reading data file ...
  triclinic box = (0.0000000 0.0000000 0.0000000) to (27.599335 22.570389 29.258575) with tilt (0.0000000 -10.188912 0.0000000)
  reading atoms ...
  2268 atoms
Finding 1-2 1-3 1-4 neighbors ...
     0 = max # of 1-2 neighbors
     0 = max # of 1-3 neighbors
     0 = max # of 1-4 neighbors
     1 = max # of special neighbors
include 	in.setup
variable	out_freq equal 1250
variable	out_freq2 equal 1250

timestep	0.0002

neigh_modify    delay 7 every 1

include		in.deepmd
# This is deepMD model

# create groups ###
#group ox type 2
#group hy type 1

#mass            2 15.9994
#mass            1 1.007840

pair_style      deepmd ../../graph.pb
Summary of lammps deepmd module ...
  >>> Info of deepmd-kit:
  installed to:       /home/sbore/software/miniconda3/envs/deepmd2.1.1
  source:             v2.1.1
  source branch:       HEAD
  source commit:      c4f0cec0
  source commit at:   2022-04-16 11:11:16 +0800
  surpport model ver.:1.1
  build float prec:   double
  build with tf inc:  /home/sbore/software/miniconda3/envs/deepmd2.1.1/include;/home/sbore/software/miniconda3/envs/deepmd2.1.1/include
  build with tf lib:  /home/sbore/software/miniconda3/envs/deepmd2.1.1/lib/libtensorflow_cc.so;/home/sbore/software/miniconda3/envs/deepmd2.1.1/lib/libtensorflow_framework.so
  set tf intra_op_parallelism_threads: 2
  set tf inter_op_parallelism_threads: 2
  >>> Info of lammps module:
  use deepmd-kit at:  /home/sbore/software/miniconda3/envs/deepmd2.1.12022-05-23 05:56:59.778526: I tensorflow/core/platform/cpu_feature_guard.cc:151] This TensorFlow binary is optimized with oneAPI Deep Neural Network Library (oneDNN) to use the following CPU instructions in performance-critical operations:  SSE4.1 SSE4.2 AVX AVX2 AVX512F FMA
To enable them in other operations, rebuild TensorFlow with the appropriate compiler flags.
2022-05-23 05:57:00.359514: I tensorflow/core/common_runtime/gpu/gpu_device.cc:1525] Created device /job:localhost/replica:0/task:0/device:GPU:0 with 5467 MB memory:  -> device: 0, name: NVIDIA GeForce GTX 1060 6GB, pci bus id: 0000:17:00.0, compute capability: 6.1
  >>> Info of model(s):
  rcut in model:      6
  ntypes in model:    2
pair_coeff      * *

bond_style      none
angle_style     none
dihedral_style  none
improper_style  none
neigh_modify exclude none

neighbor        2.0 bin
neigh_modify    every 10 delay 0 check no

thermo          1250
thermo_style 	custom step temp pe etotal epair emol press lx ly lz vol pxx pyy pzz pxy pxz pyz cella cellb cellc cellalpha cellbeta cellgamma

thermo_modify   flush yes
restart 	1250 restart.lmp.0 restart2.lmp.0

include         in.dump
dump            myDump all atom 1250 configurations.lammpstrj
dump_modify     myDump append yes

include in.dump_rerun

###############################
# Dump data into output files #
###############################

# Dump forces every step
dump force all custom 500 force_ev.dat id fx fy fz
dump_modify force sort id append yes

# Dump energy every step
fix             energy all print 500 "$(step) $(pe)" append energy_ev.dat screen no title "#step pe/(ev)"

# Dump box every step
fix             box all print 500 "$(step) $(lx) 0.0 0.0 $(xy) $(ly) 0.0 $(xz) $(yz) $(lz)" append box.dat screen no title "#step lxx lxy lxz lyx lyz lzx lzy lzz"

#include in.dump_avg

timer           timeout 23:45:00 every 250
New timer settings: style=normal  mode=nosync  timeout=23:45:00

fix             2 all nph tri 0.53 0.53 1
fix             3 all temp/csvr 223 223 0.1 745823
velocity 	all create 223 745823 dist gaussian

run             499997 upto

CITE-CITE-CITE-CITE-CITE-CITE-CITE-CITE-CITE-CITE-CITE-CITE-CITE

Your simulation uses code contributions which should be cited:
- USER-DEEPMD package:
The log file lists these citations in BibTeX format.

CITE-CITE-CITE-CITE-CITE-CITE-CITE-CITE-CITE-CITE-CITE-CITE-CITE

  update every 10 steps, delay 0 steps, check no
Setting up Verlet run ...
  Unit style    : metal
  Current step  : 0
  Time step     : 0.0002
  Walltime left : 23:44:59.99
Step Temp PotEng TotEng E_pair E_mol Press Lx Ly Lz Volume Pxx Pyy Pzz Pxy Pxz Pyz Cella Cellb Cellc CellAlpha CellBeta CellGamma
0          223   -402.38073   -337.03443   -402.38073            0    36757.993    27.599335    22.570389    29.258575    18225.978    36998.136    37594.675    35681.169    394.94511    432.71687    35.906243    27.599335    22.570389      30.9819           90        109.2           90
Averages over the last 50 of 100 rows, steps 62500 to 123750:
Temp PotEng TotEng E_pair E_mol Press Lx Ly Lz Volume Pxx Pyy Pzz Pxy Pxz Pyz Cella Cellb Cellc CellAlpha CellBeta CellGamma
221.596 -378.321 -313.386 -378.321 0 -242.529 27.543 22.958 29.382 18578.7 -398.262 -122.29 -207.033 51.7546 144.738 258.725 27.543 22.9582 31.1706 89.9698 109.5 89.9351
xargs: bash: terminated by signal 15
